12

C                     1.60027000           1.48342000          -1.78274000         
C                     0.34966000           1.18368000          -0.97352000         
C                     2.39841000          -1.90372000          -1.19459000         
O                    -1.15638000           3.88050000          -2.54694000         
O                    -1.09242000           4.17238000          -1.43474000         
O                     3.40202000          -1.61082000          -1.61760000         
H                     1.55142000           2.51742000          -2.18408000         
H                     2.49856000           1.38631000          -1.13730000         
H                     1.68163000           0.76953000          -2.62926000         
H                     0.39696000           0.15266000          -0.56725000         
H                    -0.54795000           1.27420000          -1.62019000         
H                     0.26688000           1.90037000          -0.12971000         
