12

C                     2.13382000           0.85161000          -2.35179000         
C                     1.11432000           0.17191000          -1.81640000         
C                     1.31065000          -0.92916000          -0.85263000         
O                    -1.07653000           3.52095000          -2.50097000         
O                    -1.37967000           3.91613000          -1.46384000         
O                     2.42782000          -1.27204000          -0.49746000         
H                     1.24466000           3.11589000          -0.67405000         
H                     3.16411000           0.62153000          -2.09844000         
H                     1.93757000           1.65514000          -3.05436000         
H                     0.44383000          -1.44345000          -0.45172000         
H                     0.09986000           0.43792000          -2.09703000         
H                     0.96885000           2.69358000          -0.17720000         
