12

C                     2.00547000           1.64008000          -2.19630000         
C                     1.10646000           0.54701000          -1.79272000         
C                     1.71904000          -0.57565000          -1.53183000         
O                    -1.03253000           3.53475000          -2.45136000         
O                    -0.88563000           3.70612000          -1.32271000         
O                     2.33598000          -1.55144000          -1.22637000         
H                     1.49098000           2.61673000          -2.24319000         
H                     2.85486000           1.69955000          -1.47442000         
H                     2.37377000           1.33582000          -3.19432000         
H                     0.10032000          -0.48585000           0.46406000         
H                     0.02685000           0.69240000          -1.67645000         
H                     0.29372000           0.18048000           0.60970000         
