12

C                     2.02927000           2.43367000          -2.56115000         
C                     1.51796000           1.38360000          -1.58803000         
C                    -0.41176000          -0.52029000          -0.30787000         
O                     0.13852000           1.18301000          -1.79362000         
O                    -0.36318000           0.78622000          -0.66048000         
O                     0.08048000          -1.38083000          -1.02159000         
H                     1.52333000           3.40433000          -2.37321000         
H                     3.12351000           2.56502000          -2.42381000         
H                     1.83326000           2.11513000          -3.60680000         
H                    -0.87809000          -0.80370000           0.62887000         
H                     2.05562000           0.42840000          -1.77181000         
H                     1.74040000           1.74544000          -0.55641000         
