12

C                     2.57306000           1.03227000          -1.62971000         
C                     1.70797000           0.47830000          -0.77362000         
C                     1.33637000          -0.94941000          -0.82984000         
O                    -1.60761000           4.22151000          -2.27617000         
O                    -1.19091000           4.06565000          -1.21509000         
O                     1.80937000          -1.69712000          -1.67184000         
H                     0.23904000           2.20077000          -2.87017000         
H                     2.81117000           2.08805000          -1.54961000         
H                     3.04640000           0.44993000          -2.41417000         
H                     0.62763000          -1.34136000          -0.10826000         
H                    -0.21929000           1.69175000          -2.69084000         
H                     1.25610000           1.09967000          -0.00659000         
