12

C                     1.84297000           1.48291000          -2.19323000         
C                     0.83978000           0.43682000          -1.78931000         
C                     0.92218000          -0.36480000          -0.71030000         
O                    -1.21121000           3.60421000          -2.43252000         
O                    -1.01219000           3.74599000          -1.30748000         
O                     1.93844000          -0.34199000           0.18392000         
H                     1.34092000           2.47088000          -2.22757000         
H                     2.71154000           1.56875000          -1.51615000         
H                     2.22248000           1.24364000          -3.20804000         
H                     0.12151000          -1.07840000          -0.54324000         
H                    -0.02741000           0.32401000          -2.43368000         
H                     2.70030000           0.24799000           0.14170000         
