12

C                     2.29846000           1.30788000          -2.11979000         
C                     0.39415000           0.19307000          -0.73881000         
C                     1.72721000           0.11373000          -1.41881000         
O                    -1.02035000           3.50470000          -2.44298000         
O                    -0.87448000           3.67878000          -1.31463000         
O                     2.35670000          -0.93284000          -1.40336000         
H                     1.61153000           2.17694000          -2.04465000         
H                     3.27056000           1.58104000          -1.65858000         
H                     2.45684000           1.06988000          -3.19246000         
H                     0.13136000          -0.78133000          -0.27412000         
H                    -0.38782000           0.45789000          -1.48087000         
H                     0.42513000           0.97027000           0.05318000         
