12

C                     2.11452000           2.46006000          -2.23941000         
C                    -0.13876000           0.60641000          -1.00449000         
C                     0.84147000          -0.52382000          -0.88103000         
O                     0.17613000           1.43582000          -2.10105000         
O                     0.84735000           2.47604000          -1.62769000         
O                     1.78376000          -0.63227000          -1.64863000         
H                     2.42304000           3.50530000          -2.44574000         
H                     2.85385000           1.99182000          -1.55639000         
H                     2.11919000           1.92912000          -3.21988000         
H                     0.70518000          -1.26200000          -0.09778000         
H                    -1.15105000           0.18280000          -1.16998000         
H                    -0.18538000           1.17073000          -0.04384000         
