12

C                     1.36708000           1.78548000          -2.35495000         
C                     0.41996000           1.37650000          -1.51394000         
C                     2.37375000          -1.04143000          -0.59666000         
O                    -1.31115000           3.90515000          -2.52467000         
O                    -1.19419000           4.19661000          -1.41805000         
O                     2.77234000          -1.83322000          -1.43374000         
H                     2.02819000           2.60039000          -2.07879000         
H                     2.95115000          -0.15083000          -0.37341000         
H                     1.48449000           1.30518000          -3.32078000         
H                     1.43374000          -1.21878000          -0.08558000         
H                    -0.24026000           0.56040000          -1.78862000         
H                     0.30420000           1.85456000          -0.54670000         
