12

C                     1.92200000           1.61690000          -2.43140000         
C                     0.63267000           0.96675000          -1.90274000         
C                     0.88003000          -0.20707000          -0.98219000         
O                    -0.20821000           1.92312000          -1.29081000         
O                     0.41719000           2.38483000          -0.22079000         
O                     2.01032000          -0.54096000          -0.66089000         
H                     1.66686000           2.43995000          -3.13206000         
H                     2.53179000           2.03128000          -1.60053000         
H                     2.53167000           0.86644000          -2.97861000         
H                     0.03293000          -0.76540000          -0.59747000         
H                     0.08882000           0.56798000          -2.78554000         
H                    -0.11677000           2.05619000           0.54713000         
