12

C                     1.78934000           2.08746000          -1.50022000         
C                     0.71564000           1.55406000          -0.92208000         
C                     1.78083000          -1.40341000          -1.71289000         
O                    -1.19814000           3.88070000          -2.53965000         
O                    -1.17177000           4.18350000          -1.43019000         
O                     2.85838000          -1.77060000          -1.27630000         
H                     1.74482000           2.42425000          -2.53086000         
H                     2.71623000           2.18613000          -0.94489000         
H                     1.72629000          -0.90333000          -2.67378000         
H                     0.87761000          -1.56280000          -1.13404000         
H                    -0.21016000           1.45003000          -1.47819000         
H                     0.76023000           1.21402000           0.10719000         
