12

C                     2.16279000           1.80824000          -1.88803000         
C                     1.05075000           1.30465000          -0.95313000         
C                     0.88771000          -0.19869000          -0.96123000         
O                    -0.55875000           1.59483000          -2.44031000         
O                    -0.17627000           1.95011000          -1.22512000         
O                     1.55194000          -0.91020000          -1.69935000         
H                     2.25657000           2.91130000          -1.79907000         
H                     3.13495000           1.34967000          -1.60699000         
H                     1.94285000           1.55267000          -2.94642000         
H                     0.16262000          -0.65580000          -0.29595000         
H                    -1.37363000           1.04784000          -2.30015000         
H                     1.34778000           1.58539000           0.07985000         
