51

C          4.46184       -2.12469       -0.58248
C          3.61068       -2.22648       -1.62503
H          4.47021       -2.86344        0.21456
H          5.21624       -1.34572       -0.54008
H          2.87400       -3.02344       -1.67175
H          3.60704       -1.50534       -2.43794
C          3.83159        0.07820        1.74367
C          4.94901        0.96139        1.16050
C          4.47019        1.89245        0.02915
Ga         2.59488       -0.76386        0.48175
H          3.13588        0.69244        2.32861
H          4.22753       -0.70489        2.39979
H          5.77788        0.33881        0.78920
H          5.37762        1.57141        1.97002
H          5.31745        2.31771       -0.47434
H          4.12273        1.27831       -0.81555
H          3.59318        2.45180        0.37928
O          1.44577       -2.06747        1.00499
O          1.69620        0.25678       -0.77298
Si        -0.36610        2.46728        1.64641
Si        -2.14432       -0.16252        2.28977
Si        -0.11562       -2.54489        1.26214
Si        -1.54931        2.46588       -1.36801
Si        -3.53617        0.01365       -0.66369
Si        -1.38037       -2.12890       -1.70129
Si         0.76091        0.30010       -2.15233
O         -1.36071        1.31944        2.38186
O         -1.02984       -1.36946        2.05603
O          1.15301        1.84120        1.28060
O         -1.09275        2.90344        0.18630
O         -3.16580       -0.08712        0.95814
O         -0.88959       -2.74683       -0.22834
O         -2.84464        1.41250       -1.28411
O         -2.81800       -1.28530       -1.45269
O         -0.22742       -1.05363       -2.25289
O         -0.25620        1.63754       -2.05274
O         -0.16611       -3.97725        2.15470
O         -3.01844       -0.49624        3.69011
O         -5.20674        0.01920       -0.83399
O         -1.56607       -3.32636       -2.86784
O         -0.22039        3.78377        2.68318
O         -2.00291        3.80786       -2.27073
O          1.78097        0.36863       -3.49986
H          1.39278        1.49194        0.38023
H         -0.71366        3.86759        3.51279
H         -3.88421       -0.11107        3.89281
H         -0.84957       -4.16075        2.81731
H         -2.13184       -4.10594       -2.76555
H          1.46199        0.43426       -4.41336
H         -5.67629        0.27258       -1.64239
H         -1.65456        4.70115       -2.13294
