48

C                    -5.21565000          -0.17761000          -0.47704000         
C                    -3.73206000          -0.56760000          -0.41254000         
C                    -5.67759000           0.49651000           0.82098000         
C                    -6.06209000          -1.43049000          -0.74279000         
Ga                   -2.41447000           0.95691000          -0.20533000         
H                    -5.36225000           0.52892000          -1.32312000         
H                    -3.45764000          -1.08221000          -1.35632000         
H                    -3.55680000          -1.27775000           0.42470000         
H                    -5.10523000           1.42843000           1.00676000         
H                    -5.54155000          -0.18674000           1.68703000         
H                    -6.75213000           0.76815000           0.74588000         
H                    -5.75171000          -1.91070000          -1.69610000         
H                    -5.94198000          -2.16927000           0.07968000         
H                    -7.13600000          -1.16160000          -0.82718000         
O                    -1.20560000           0.72860000          -1.47480000         
O                    -1.79120000           0.77880000           1.42160000         
Si                    1.98510000           2.55470000          -0.62190000         
Si                    2.63630000          -0.16380000          -2.23060000         
Si                   -0.59430000          -0.69310000          -2.13850000         
Si                    2.19200000           0.83970000           2.16680000         
Si                    2.97260000          -1.84770000           0.48600000         
Si                   -0.17450000          -2.61770000           0.46490000         
Si                   -0.90220000          -0.15250000           2.44940000         
O                     2.70610000           1.39250000          -1.61620000         
O                     1.02350000          -0.49550000          -2.51370000         
O                     0.39210000           2.79010000          -1.11690000         
O                     2.08870000           1.97220000           0.94130000         
O                     3.22150000          -1.22120000          -1.05670000         
O                    -0.68640000          -1.86860000          -0.93890000         
O                     2.88790000          -0.55300000           1.54680000         
O                     1.50620000          -2.64640000           0.48140000         
O                    -0.67860000          -1.68480000           1.75760000         
O                     0.65430000           0.45530000           2.68700000         
O                    -1.50050000          -1.12120000          -3.49380000         
O                     3.49620000          -0.34490000          -3.66170000         
O                     4.18850000          -2.91910000           0.92820000         
O                    -0.80260000          -4.17650000           0.48890000         
O                     2.82570000           4.01560000          -0.64430000         
O                     3.14960000           1.41130000           3.42810000         
O                    -1.66760000          -0.27880000           3.94990000         
H                     3.36210000           2.34790000           3.55710000         
H                    -0.21810000           2.03470000          -1.37460000         
H                     2.83950000           4.60950000          -1.40980000         
H                     4.42830000          -0.60270000          -3.71240000         
H                    -1.26700000          -1.83010000          -4.11220000         
H                    -0.48290000          -4.88780000           1.06340000         
H                    -1.19510000          -0.52640000           4.75970000         
H                     4.98180000          -2.66760000           1.42410000         
