18

C                    -5.40697000           2.23864000          -1.84885000         
C                    -4.92806000           3.29124000          -1.16831000         
H                    -5.25903000           2.23756000          -2.92607000         
H                    -5.02222000           3.38798000          -0.09305000         
H                    -4.41016000           4.08381000          -1.69993000         
C                    -6.15131000           1.04910000          -1.25069000         
C                    -5.43452000          -0.26008000          -1.66647000         
C                    -6.32993000           1.14894000           0.27782000         
C                    -6.20056000          -1.52965000          -1.29377000         
H                    -7.16048000           1.04925000          -1.71409000         
H                    -5.30954000          -0.26488000          -2.77112000         
H                    -4.42897000          -0.32029000          -1.21418000         
H                    -6.86523000           2.08578000           0.54088000         
H                    -5.34663000           1.13336000           0.79430000         
H                    -6.94631000           0.31499000           0.66682000         
H                    -5.64050000          -2.41506000          -1.66755000         
H                    -6.29732000          -1.63872000          -0.19452000         
H                    -7.20550000          -1.52159000          -1.76064000         
