12
9.491301636569915
C        1.744750       1.274435      -2.346291
C        0.215726       0.150214      -0.746146
C        1.520829       0.001240      -1.365569
O        0.807825       2.300816      -2.412626
O        0.825315       3.073374      -1.209115
O        2.542857      -0.572025      -1.157787
H        0.802211       3.979891      -1.538542
H        1.781712       0.876400      -3.367687
H        2.744702       1.631294      -2.084754
H        0.159144      -0.881985      -0.188693
H        0.111890       0.976530      -0.061825
H       -0.609148       0.165634      -1.449528
12
8.27890216610831
C        1.746454       1.274166      -2.347777
C        0.214721       0.149097      -0.743650
C        1.522846       0.004672      -1.371012
O        0.808523       2.299543      -2.411445
O        0.826377       3.070772      -1.207085
O        2.538815      -0.572476      -1.151431
H        0.801527       3.977764      -1.536009
H        1.784051       0.877886      -3.370157
H        2.746595       1.630023      -2.086953
H        0.159473      -0.874967      -0.191452
H        0.111549       0.973293      -0.057593
H       -0.611012       0.162786      -1.446069
