16

C                    -6.32406000          -1.72975000           0.32882000         
C                    -6.94982000           0.40324000          -1.03399000         
C                    -6.30711000          -0.23086000           0.17507000         
C                    -5.70052000           0.50795000           1.12989000         
H                    -6.84594000          -2.00750000           1.26905000         
H                    -6.84481000          -2.22485000          -0.51734000         
H                    -5.28172000          -2.11322000           0.36469000         
H                    -7.39168000          -0.35858000          -1.70935000         
H                    -7.76050000           1.09122000          -0.71469000         
H                    -6.18864000           0.96986000          -1.61068000         
H                    -5.24414000          -0.00844000           1.97258000         
C                    -5.59492000           1.98678000           1.08727000         
C                    -4.92577000           2.65399000           2.03165000         
H                    -6.04503000           2.55428000           0.27860000         
H                    -4.84481000           3.73442000           1.97898000         
H                    -4.44406000           2.13289000           2.85429000         
