4

C                    -4.89435000           2.51657000           1.05085000         
C                    -4.74164000           1.85973000           2.05100000         
H                    -4.92027000           3.05755000           0.14016000         
H                    -4.49592000           1.25480000           2.88489000         
