52

C                    -5.45558000          -0.62341000           0.89830000         
C                    -6.64201000           0.43103000          -1.03333000         
C                    -5.41842000           0.55351000          -0.10546000         
C                    -4.13271000           0.46894000          -0.96033000         
H                    -6.39307000          -0.60025000           1.49479000         
H                    -5.41990000          -1.59510000           0.35955000         
H                    -4.59677000          -0.59214000           1.59836000         
H                    -6.63480000          -0.54155000          -1.57339000         
H                    -7.58504000           0.50021000          -0.44881000         
H                    -6.64683000           1.24405000          -1.79166000         
H                    -4.15790000           1.24650000          -1.75535000         
H                    -4.05957000          -0.51991000          -1.46342000         
C                    -5.47233000           1.92648000           0.56280000         
C                    -5.50764000           2.14762000           1.88492000         
Ga                   -2.39713000           0.81783000           0.01424000         
H                    -5.47272000           2.79755000          -0.08711000         
H                    -5.53685000           3.16692000           2.25595000         
H                    -5.50358000           1.34663000           2.61430000         
O                    -1.14790000           1.15140000          -1.18670000         
O                    -2.04040000          -0.41110000           1.21590000         
Si                    1.54280000           2.74700000           0.75040000         
Si                    2.79860000           1.16330000          -1.75440000         
Si                   -0.28700000           0.25310000          -2.31070000         
Si                    1.79670000          -0.05310000           2.46900000         
Si                    3.24460000          -1.52880000          -0.05170000         
Si                    0.32230000          -2.62600000          -0.87850000         
Si                   -1.03230000          -1.54290000           1.84810000         
O                     2.56620000           2.25830000          -0.51010000         
O                     1.29470000           0.78980000          -2.38410000         
O                     0.03550000           3.14120000           0.11980000         
O                     1.51640000           1.45570000           1.81360000         
O                     3.47680000          -0.23400000          -1.09990000         
O                    -0.24440000          -1.34630000          -1.79400000         
O                     2.81010000          -0.90160000           1.43940000         
O                     1.97600000          -2.44650000          -0.64090000         
O                    -0.44800000          -2.53750000           0.60260000         
O                     0.34520000          -0.87660000           2.55380000         
O                    -1.06320000           0.36830000          -3.80780000         
O                     3.75310000           1.76220000          -3.00030000         
O                     4.60820000          -2.50350000           0.06110000         
O                     0.00630000          -4.06470000          -1.69140000         
O                     2.16560000           4.07210000           1.58700000         
O                     2.54690000           0.05010000           3.97300000         
O                    -1.86960000          -2.46930000           2.98680000         
H                     2.43200000           0.79470000           4.58240000         
H                    -0.45350000           2.53880000          -0.50630000         
H                     1.97700000           4.98610000           1.32510000         
H                     4.71270000           1.88160000          -2.95200000         
H                    -0.65150000           0.12820000          -4.65220000         
H                     0.56480000          -4.85380000          -1.62640000         
H                    -1.42480000          -3.07320000           3.60120000         
H                     5.33240000          -2.35760000           0.68770000         
