13

C                    -6.99417000           1.28791000          -1.66301000         
C                    -5.70361000           2.05148000          -1.85022000         
C                    -5.06992000           1.93231000          -3.02737000         
H                    -6.81063000           0.20098000          -1.79177000         
H                    -7.45788000           1.43125000          -0.67025000         
H                    -7.73109000           1.61418000          -2.42624000         
H                    -5.47578000           1.30747000          -3.81580000         
H                    -4.13190000           2.44603000          -3.21717000         
C                    -5.08434000           2.91219000          -0.79653000         
C                    -5.56777000           3.08934000           0.43850000         
H                    -4.16231000           3.43551000          -1.04010000         
H                    -5.03650000           3.73309000           1.12964000         
H                    -6.46923000           2.61406000           0.80250000         
