6

H                    -5.80540000           1.88649000           1.58275000         
C                    -5.14289000           2.73373000           1.44031000         
C                    -4.28468000           3.08067000           2.39644000         
H                    -5.18268000           3.29271000           0.51102000         
H                    -3.62024000           3.92666000           2.25390000         
H                    -4.24339000           2.51855000           3.32366000         
