12
81.75824717102114
C        0.508169       1.262408      -2.264162
C        0.050299       0.793879      -1.092945
C        1.922898      -0.464329      -1.062580
O        0.887019       2.493189      -2.617355
O        1.370279       3.273833      -1.529082
O        1.926434      -1.022907      -0.019662
H        1.378436       4.167017      -1.903579
H        2.561727       0.975891      -1.234208
H        0.289064       0.727323      -3.187126
H        1.959832      -0.840616      -2.072891
H       -0.824661       0.171520      -1.045093
H        0.314006       1.294726      -0.176845
12
81.45103303440374
C        0.507750       1.262429      -2.263781
C        0.050127       0.793123      -1.093063
C        1.922854      -0.462855      -1.062824
O        0.886598       2.493246      -2.616702
O        1.370176       3.273718      -1.528543
O        1.926175      -1.021096      -0.019628
H        1.380133       4.166711      -1.903770
H        2.561653       0.973755      -1.234141
H        0.289347       0.727294      -3.186913
H        1.959348      -0.839523      -2.072990
H       -0.823933       0.169575      -1.045420
H        0.313221       1.294181      -0.176913
