12
33.46582061615845
C        0.051152       1.435527      -2.381279
C       -0.391781       1.112472      -1.182041
C        2.444813      -0.283318      -0.938319
O        1.065979       2.280145      -2.708416
O        1.724817       2.848321      -1.587332
O        2.106636      -1.066706      -0.102290
H        1.668409       3.800697      -1.749633
H        2.812906       0.726535      -0.700358
H       -0.349587       1.057429      -3.311876
H        2.415431      -0.517146      -2.016503
H       -1.207359       0.426005      -1.068643
H        0.047684       1.519540      -0.289211
12
33.46561431614464
C        0.051137       1.435520      -2.381206
C       -0.391787       1.112431      -1.181987
C        2.444791      -0.283261      -0.938343
O        1.065957       2.280132      -2.708378
O        1.724819       2.848327      -1.587372
O        2.106640      -1.066637      -0.102505
H        1.668501       3.800671      -1.749782
H        2.812842       0.726529      -0.700306
H       -0.349574       1.057415      -3.311757
H        2.415445      -0.516975      -2.016473
H       -1.207329       0.425913      -1.068620
H        0.047658       1.519435      -0.289170
