12
62.074279062802816
C        0.335489       1.290882      -2.309339
C       -0.104029       0.891276      -1.122737
C        2.135281      -0.436563      -1.033083
O        0.917226       2.459319      -2.657061
O        1.449180       3.168917      -1.545423
O        2.045071      -1.042979      -0.026642
H        1.412155       4.090009      -1.839073
H        2.640264       0.936721      -1.081193
H        0.046962       0.799886      -3.232768
H        2.145263      -0.795386      -2.060617
H       -0.959367       0.245923      -1.049709
H        0.207763       1.370719      -0.210861
12
61.20239994889744
C        0.334742       1.290771      -2.309186
C       -0.104584       0.889288      -1.123303
C        2.135648      -0.432057      -1.033646
O        0.916673       2.459155      -2.655562
O        1.448621       3.168124      -1.543370
O        2.045202      -1.037238      -0.026267
H        1.417186       4.088806      -1.839029
H        2.638427       0.931551      -1.081903
H        0.047985       0.799967      -3.233238
H        2.144134      -0.791944      -2.060888
H       -0.957289       0.240604      -1.050921
H        0.205627       1.369269      -0.211198
