12
0.0
C        1.305313       1.374212      -2.215965
C        0.706946       0.658661      -1.000651
C        1.182480      -0.757595      -0.878810
O        0.676271       2.594887      -2.493711
O        0.962816       3.527393      -1.449136
O        1.479105      -1.305059       0.143361
H        0.783478       4.375000      -1.876299
H        2.382247       1.528041      -2.072378
H        1.137182       0.799519      -3.131605
H        1.225943      -1.293998      -1.849048
H       -0.380486       0.625021      -1.123996
H        0.927804       1.213419      -0.087661
12
-7.101524533936754e-05
C        1.305317       1.374204      -2.215960
C        0.706936       0.658641      -1.000643
C        1.182490      -0.757603      -0.878808
O        0.676286       2.594915      -2.493713
O        0.962958       3.527461      -1.449216
O        1.479095      -1.305043       0.143344
H        0.783369       4.375013      -1.876261
H        2.382241       1.528029      -2.072374
H        1.137181       0.799520      -3.131585
H        1.225945      -1.294021      -1.849051
H       -0.380501       0.624986      -1.123990
H        0.927782       1.213397      -0.087643
