12
40.33114565076721
C        0.170142       1.323914      -2.340006
C       -0.253605       0.960716      -1.143431
C        2.326111      -0.330684      -1.005216
O        0.954379       2.376140      -2.683345
O        1.548853       3.024408      -1.567479
O        2.136806      -1.023581      -0.061875
H        1.482939       3.962201      -1.795543
H        2.721645       0.844814      -0.905901
H       -0.172912       0.876739      -3.264581
H        2.311378      -0.640539      -2.056264
H       -1.073048       0.275316      -1.043124
H        0.115426       1.417209      -0.242392
12
39.898639627988814
C        0.169913       1.323867      -2.340083
C       -0.253881       0.959354      -1.143980
C        2.326327      -0.327587      -1.005323
O        0.953949       2.376402      -2.682323
O        1.548483       3.023833      -1.565913
O        2.136923      -1.019756      -0.061212
H        1.485758       3.961604      -1.795033
H        2.719953       0.840945      -0.907094
H       -0.172078       0.876915      -3.265118
H        2.310753      -0.638386      -2.056183
H       -1.071781       0.272121      -1.044351
H        0.114109       1.416076      -0.242667
