54

C                    -5.58916000          -1.54281000          -0.80923000         
C                    -5.97559000           1.27310000          -2.94017000         
C                    -5.21354000          -0.34302000          -1.25959000         
C                    -6.17945000           0.78649000          -1.50765000         
H                    -4.16496000          -0.18490000          -1.46976000         
H                    -7.22099000           0.42658000          -1.38448000         
H                    -3.17148000           2.03719000           0.92275000         
H                    -6.63005000          -1.75666000          -0.58615000         
H                    -4.84550000          -2.31453000          -0.65266000         
H                    -6.12911000           0.43708000          -3.65348000         
H                    -6.69289000           2.08707000          -3.17669000         
H                    -4.94271000           1.66253000          -3.06766000         
C                    -5.97442000           1.96034000          -0.52240000         
C                    -6.22938000           1.56967000           0.93922000         
Ga                   -2.38073000           0.78564000           0.29511000         
H                    -4.94986000           2.37368000          -0.61461000         
H                    -6.69123000           2.77451000          -0.77810000         
H                    -6.10096000           2.45844000           1.59212000         
H                    -7.26617000           1.19005000           1.06639000         
H                    -5.51459000           0.78792000           1.27582000         
O                    -1.30230000           1.03880000          -1.07600000         
O                    -1.96930000          -0.48380000           1.37680000         
Si                    1.45850000           2.81640000           0.59930000         
Si                    2.57560000           1.15650000          -1.93280000         
Si                   -0.50400000           0.10610000          -2.21230000         
Si                    1.92380000           0.10000000           2.40450000         
Si                    3.25120000          -1.42110000          -0.14180000         
Si                    0.31300000          -2.68320000          -0.73060000         
Si                   -0.88690000          -1.54440000           2.01250000         
O                     2.37070000           2.30520000          -0.73220000         
O                     1.05150000           0.68200000          -2.42960000         
O                    -0.12410000           3.11010000           0.10160000         
O                     1.58690000           1.58970000           1.72800000         
O                     3.37010000          -0.16940000          -1.26110000         
O                    -0.38060000          -1.47570000          -1.65780000         
O                     2.93970000          -0.73080000           1.35480000         
O                     1.95600000          -2.37800000          -0.58260000         
O                    -0.37730000          -2.61520000           0.79420000         
O                     0.52060000          -0.78410000           2.54020000         
O                    -1.37490000           0.12570000          -3.66370000         
O                     3.41310000           1.73500000          -3.26870000         
O                     4.63970000          -2.36580000          -0.10440000         
O                     0.03570000          -4.15410000          -1.49830000         
O                     2.09660000           4.20430000           1.31190000         
O                     2.67030000           0.27940000           3.90280000         
O                    -1.57170000          -2.40550000           3.29440000         
H                     2.83280000           1.14000000           4.31790000         
H                    -0.60660000           2.47810000          -0.50050000         
H                     1.88640000           5.09770000           1.00030000         
H                     4.37600000           1.82260000          -3.32060000         
H                    -0.99490000          -0.12620000          -4.51980000         
H                     0.52940000          -4.96720000          -1.31450000         
H                    -1.03740000          -2.84200000           3.97580000         
H                     5.40920000          -2.18450000           0.45530000         
