54

C                    -5.41203000          -0.68735000           2.29560000         
C                    -5.73248000           0.30030000          -2.69748000         
C                    -3.89862000          -0.08968000          -1.06506000         
C                    -4.73935000           0.75538000          -1.67058000         
H                    -3.89868000          -1.15119000          -1.29409000         
H                    -4.69522000           1.81601000          -1.44338000         
H                    -6.47466000          -1.01948000           2.29805000         
H                    -4.94959000          -1.00856000           1.34520000         
H                    -4.87615000          -1.18209000           3.13397000         
H                    -6.76150000           0.53848000          -2.35672000         
H                    -5.53256000           0.84209000          -3.64527000         
H                    -5.65452000          -0.78991000          -2.89565000         
C                    -5.33301000           0.82947000           2.43822000         
C                    -5.96511000           1.30396000           3.73561000         
Ga                   -2.49758000           0.64516000           0.12345000         
H                    -4.26682000           1.14587000           2.43106000         
H                    -5.85189000           1.30593000           1.57536000         
H                    -5.89169000           2.40549000           3.80850000         
H                    -7.03898000           1.01833000           3.76735000         
H                    -5.44061000           0.85370000           4.60364000         
O                    -1.30230000           1.03880000          -1.07600000         
O                    -1.96930000          -0.48380000           1.37680000         
Si                    1.45850000           2.81640000           0.59930000         
Si                    2.57560000           1.15650000          -1.93280000         
Si                   -0.50400000           0.10610000          -2.21230000         
Si                    1.92380000           0.10000000           2.40450000         
Si                    3.25120000          -1.42110000          -0.14180000         
Si                    0.31300000          -2.68320000          -0.73060000         
Si                   -0.88690000          -1.54440000           2.01250000         
O                     2.37070000           2.30520000          -0.73220000         
O                     1.05150000           0.68200000          -2.42960000         
O                    -0.12410000           3.11010000           0.10160000         
O                     1.58690000           1.58970000           1.72800000         
O                     3.37010000          -0.16940000          -1.26110000         
O                    -0.38060000          -1.47570000          -1.65780000         
O                     2.93970000          -0.73080000           1.35480000         
O                     1.95600000          -2.37800000          -0.58260000         
O                    -0.37730000          -2.61520000           0.79420000         
O                     0.52060000          -0.78410000           2.54020000         
O                    -1.37490000           0.12570000          -3.66370000         
O                     3.41310000           1.73500000          -3.26870000         
O                     4.63970000          -2.36580000          -0.10440000         
O                     0.03570000          -4.15410000          -1.49830000         
O                     2.09660000           4.20430000           1.31190000         
O                     2.67030000           0.27940000           3.90280000         
O                    -1.57170000          -2.40550000           3.29440000         
H                     2.83280000           1.14000000           4.31790000         
H                    -0.60660000           2.47810000          -0.50050000         
H                     1.88640000           5.09770000           1.00030000         
H                     4.37600000           1.82260000          -3.32060000         
H                    -0.99490000          -0.12620000          -4.51980000         
H                     0.52940000          -4.96720000          -1.31450000         
H                    -1.03740000          -2.84200000           3.97580000         
H                     5.40920000          -2.18450000           0.45530000         
