54

C                    -5.70930000          -0.29588000           0.16323000         
C                    -5.27973000           0.76322000          -3.55906000         
C                    -5.21197000          -0.13094000          -1.25141000         
C                    -5.84820000           0.59682000          -2.17790000         
H                    -4.27432000          -0.61824000          -1.51185000         
H                    -6.77776000           1.09790000          -1.93529000         
H                    -2.45795000           2.16864000           1.16736000         
H                    -6.67383000          -0.84496000           0.18068000         
H                    -4.95166000          -0.91123000           0.69704000         
H                    -6.00607000           0.38426000          -4.30553000         
H                    -5.09009000           1.84010000          -3.74715000         
H                    -4.32104000           0.21414000          -3.68591000         
C                    -5.87519000           1.05605000           0.88625000         
C                    -6.05010000           0.86147000           2.38655000         
Ga                   -2.36316000           0.80866000           0.30862000         
H                    -4.97986000           1.69288000           0.74416000         
H                    -6.74034000           1.60533000           0.46300000         
H                    -6.16024000           1.85031000           2.88043000         
H                    -6.94993000           0.24701000           2.59800000         
H                    -5.15281000           0.36099000           2.81277000         
O                    -1.30230000           1.03880000          -1.07600000         
O                    -1.96930000          -0.48380000           1.37680000         
Si                    1.45850000           2.81640000           0.59930000         
Si                    2.57560000           1.15650000          -1.93280000         
Si                   -0.50400000           0.10610000          -2.21230000         
Si                    1.92380000           0.10000000           2.40450000         
Si                    3.25120000          -1.42110000          -0.14180000         
Si                    0.31300000          -2.68320000          -0.73060000         
Si                   -0.88690000          -1.54440000           2.01250000         
O                     2.37070000           2.30520000          -0.73220000         
O                     1.05150000           0.68200000          -2.42960000         
O                    -0.12410000           3.11010000           0.10160000         
O                     1.58690000           1.58970000           1.72800000         
O                     3.37010000          -0.16940000          -1.26110000         
O                    -0.38060000          -1.47570000          -1.65780000         
O                     2.93970000          -0.73080000           1.35480000         
O                     1.95600000          -2.37800000          -0.58260000         
O                    -0.37730000          -2.61520000           0.79420000         
O                     0.52060000          -0.78410000           2.54020000         
O                    -1.37490000           0.12570000          -3.66370000         
O                     3.41310000           1.73500000          -3.26870000         
O                     4.63970000          -2.36580000          -0.10440000         
O                     0.03570000          -4.15410000          -1.49830000         
O                     2.09660000           4.20430000           1.31190000         
O                     2.67030000           0.27940000           3.90280000         
O                    -1.57170000          -2.40550000           3.29440000         
H                     2.83280000           1.14000000           4.31790000         
H                    -0.60660000           2.47810000          -0.50050000         
H                     1.88640000           5.09770000           1.00030000         
H                     4.37600000           1.82260000          -3.32060000         
H                    -0.99490000          -0.12620000          -4.51980000         
H                     0.52940000          -4.96720000          -1.31450000         
H                    -1.03740000          -2.84200000           3.97580000         
H                     5.40920000          -2.18450000           0.45530000         
