9
6185.004175854676
C   -24877.633750   -8290.215977   -4759.315597
C    11049.620402   13959.763420     135.566394
C    15968.222624    5868.774394    2380.407429
H   -29925.547726  -40187.623576   -7681.594375
H   -62443.407314  -24633.182370   12734.820623
H   -26795.904696   18546.697023   -8803.148342
H    -1834.557279  -31721.071840   11732.299597
H    32175.595294  -24123.876047   14607.497378
H    63276.829640  -35288.604661    4154.906950
9
6397.623859323009
C   -24877.633751   -8290.215978   -4759.315598
C    11049.620401   13959.763420     135.566392
C    15968.222628    5868.774399    2380.407433
H   -29925.547726  -40187.623578   -7681.594375
H   -62443.407314  -24633.182371   12734.820624
H   -26795.904696   18546.697022   -8803.148342
H    -1834.557280  -31721.071840   11732.299597
H    32175.595293  -24123.876047   14607.497377
H    63276.829640  -35288.604662    4154.906950
