9
6095.302269519427
C       -2.043105      -0.189950       1.070317
C       -1.168859      -0.201179       1.486510
C       -0.773980      -0.202089       1.198776
H       -1.075968      -0.145083       2.349525
H       -2.581708      -0.203495       1.475048
H       -2.114275       0.464061       0.643982
H       -2.053127      -0.721444       0.481654
H       -0.838542      -0.014143       0.485488
H       -0.267658      -0.260982       1.321115
9
6094.664396864742
C       -2.043086      -0.189954       1.070293
C       -1.168850      -0.201176       1.486481
C       -0.773947      -0.202077       1.198735
H       -1.075956      -0.145084       2.349494
H       -2.581710      -0.203509       1.475044
H       -2.114264       0.464072       0.643959
H       -2.053101      -0.721427       0.481637
H       -0.838527      -0.014108       0.485443
H       -0.267636      -0.260968       1.321069
