9
5227.202690142341
C      -19.055075       8.752776      -2.486912
C        4.115560      -2.704949       2.290672
C       11.293902      -5.545285       2.050215
H      -10.664276     -39.339133      10.438333
H      -39.944632      -8.280664       0.459643
H      -22.512308      22.299305       7.025575
H      -17.897991      15.181519     -24.143233
H       24.985451      11.918816       1.082079
H       43.476092     -27.037271       9.644412
9
5227.182283515429
C      -19.055255       8.752944      -2.487007
C        4.115349      -2.704818       2.290644
C       11.293685      -5.545157       2.050196
H      -10.664617     -39.338970      10.438226
H      -39.944204      -8.281195       0.459743
H      -22.512011      22.299341       7.025805
H      -17.897309      15.181302     -24.143384
H       24.985276      11.918915       1.082088
H       43.475790     -27.037268       9.644488
