12

C                     0.32578000           1.11845000          -3.28268000         
C                    -0.47787000           1.47143000          -2.28202000         
C                     2.15341000           0.90875000           0.13233000         
O                     2.18026000           0.15455000          -0.98689000         
O                     2.04922000           2.24973000           0.04138000         
O                     2.22183000           0.38084000           1.23033000         
H                     1.99114000           2.68892000          -0.81838000         
H                     1.01349000           1.83968000          -3.71207000         
H                     0.30142000           0.10576000          -3.67181000         
H                     2.24321000          -0.81012000          -0.94667000         
H                    -0.45068000           2.48288000          -1.89005000         
H                    -1.16211000           0.74901000          -1.84937000         
