12

C                     1.67148000           0.91234000          -2.55090000         
C                     0.77988000           1.47353000          -1.48301000         
C                     1.55106000           1.75066000          -0.21969000         
O                     2.25614000          -0.14631000          -2.38234000         
O                     1.63430000           3.00203000           0.28077000         
O                     2.10015000           0.83446000           0.37194000         
H                     1.21133000           3.75612000          -0.15288000         
H                     1.79055000           1.44399000          -3.48940000         
H                    -0.56605000          -1.24191000          -2.91861000         
H                    -0.32628000          -1.61341000          -2.36560000         
H                     0.32475000           2.41335000          -1.86159000         
H                    -0.03820000           0.75504000          -1.26459000         
