12

C                     1.75448000           1.57991000          -1.80890000         
C                     0.26303000           1.21923000          -1.69535000         
C                     0.02233000           0.06510000          -0.76346000         
O                     2.49830000           0.46960000          -2.23645000         
O                     2.25393000           2.00197000          -0.56711000         
O                     0.32100000           0.14161000           0.41650000         
H                     1.99609000           2.95516000          -0.45967000         
H                     1.88776000           2.40492000          -2.55120000         
H                    -0.43136000          -0.84562000          -1.14256000         
H                     2.24840000           0.30140000          -3.18244000         
H                    -0.11507000           0.94297000          -2.70300000         
H                    -0.30979000           2.10365000          -1.34226000         
