12

C                     1.53814000           0.66785000          -2.58250000         
C                     1.38610000           1.71195000          -1.74123000         
C                     1.51575000           1.70395000          -0.25814000         
O                     1.83984000          -0.59749000          -2.20748000         
O                     1.32917000           2.84852000           0.43350000         
O                     1.78854000           0.68838000           0.35796000         
H                     1.11147000           3.68288000          -0.00518000         
H                     1.40608000           0.85279000          -3.64403000         
H                    -1.34440000           0.07912000          -2.79081000         
H                     1.97720000          -0.89619000          -1.30203000         
H                     1.14093000           2.66745000          -2.19604000         
H                    -1.29972000          -0.06930000          -2.09992000         
