12

C                     0.34669000           0.45084000          -2.60310000         
C                    -0.07744000           1.30312000          -1.44414000         
C                     1.05633000           1.51207000          -0.47530000         
O                     0.72667000          -0.69623000          -2.42716000         
O                     1.52487000           2.75066000          -0.21301000         
O                     1.55496000           0.55338000           0.09461000         
H                     1.15667000           3.53818000          -0.63773000         
H                     3.55650000           0.30740000          -2.13306000         
H                     0.30372000           0.85006000          -3.61129000         
H                     3.59101000          -0.33184000          -1.83064000         
H                    -0.42286000           2.28358000          -1.83584000         
H                    -0.92804000           0.81868000          -0.91923000         
