12

C                     0.17536000           0.73531000          -2.77660000         
C                     0.41534000           1.82695000          -2.02059000         
C                     0.91975000           1.86555000          -0.62058000         
O                     0.36668000          -0.54487000          -2.37965000         
O                     1.13506000           3.05550000          -0.02121000         
O                     1.14085000           0.84647000           0.01135000         
H                     0.97879000           3.89464000          -0.47709000         
H                     3.31929000          -0.35769000          -1.23373000         
H                    -0.19760000           0.89194000          -3.78396000         
H                     0.70333000          -0.82064000          -1.52046000         
H                     0.21818000           2.78912000          -2.48503000         
H                     3.21407000          -0.84239000          -0.72836000         
