12

C                     1.10616000           0.56679000          -2.74855000         
C                     1.01080000           1.73755000          -1.78995000         
C                     1.06217000           1.76235000          -0.43206000         
O                     1.40995000          -0.65844000          -2.14322000         
O                     0.98189000           2.95485000           0.20384000         
O                     1.17981000           0.66305000           0.34858000         
H                     0.90503000           3.80012000          -0.26181000         
H                     1.91580000           0.78295000          -3.47622000         
H                     0.16018000           0.50605000          -3.33589000         
H                     0.58901000          -1.21521000          -2.16657000         
H                     0.88580000           2.69327000          -2.29202000         
H                     1.18251000          -0.25344000           0.05798000         
