12

C                     0.78114000           0.96226000          -2.73250000         
C                    -0.12498000           1.77417000          -1.80671000         
C                     2.86943000           0.74955000           0.64545000         
O                     1.51761000           0.01588000          -2.00747000         
O                     0.63029000           2.44340000          -0.83356000         
O                     2.44064000          -0.02119000           1.34914000         
H                     0.96031000           3.28098000          -1.25221000         
H                     1.48919000           1.64333000          -3.25037000         
H                     0.17664000           0.45540000          -3.51788000         
H                     0.88689000          -0.71114000          -1.76367000         
H                    -0.72620000           2.50071000          -2.39939000         
H                    -0.84321000           1.09785000          -1.29696000         
