12

C                     1.12962000           0.85147000          -2.44815000         
C                    -0.27814000           0.70524000          -1.87210000         
C                     2.40983000           1.20184000          -0.39165000         
O                     2.09140000           0.50723000          -1.51690000         
O                     1.90743000           2.43148000          -0.13433000         
O                     3.19749000           0.71114000           0.39928000         
H                     1.31407000           2.89992000          -0.73521000         
H                     1.30442000           1.88182000          -2.82599000         
H                     1.21643000           0.15619000          -3.30961000         
H                    -0.44229000          -0.34187000          -1.54000000         
H                    -1.02687000           0.95371000          -2.65339000         
H                    -0.43428000           1.38172000          -1.00784000         
