12

C                     1.86579000           0.68744000          -2.75909000         
C                     0.01916000           1.76814000          -0.59721000         
C                     1.51060000           1.57355000          -0.49635000         
O                     1.35150000          -0.60910000          -2.61036000         
O                     2.29130000           1.18775000          -1.54357000         
O                     2.04812000           1.80107000           0.57367000         
H                    -0.22820000           2.81675000          -0.32777000         
H                     2.74749000           0.61963000          -3.42881000         
H                     1.14040000           1.36481000          -3.26042000         
H                     0.51500000          -0.53690000          -2.08520000         
H                    -0.37827000           1.58149000          -1.61238000         
H                    -0.49380000           1.08527000           0.11159000         
