12

C                     0.81560000          -0.11668000          -2.56488000         
C                    -0.25947000           0.36564000          -1.93565000         
C                     2.11921000           2.56578000          -0.76450000         
O                     1.40880000          -1.26379000          -2.16699000         
O                     1.54775000           3.48268000           0.03966000         
O                     2.69009000           1.60354000          -0.28054000         
H                     1.09047000           4.24769000          -0.33503000         
H                     1.22538000           0.42303000          -3.41249000         
H                     2.06923000           2.67732000          -1.84334000         
H                     1.08539000          -1.78191000          -1.41576000         
H                    -0.71623000           1.29070000          -2.27230000         
H                    -0.68712000          -0.15410000          -1.08407000         
