54

C                    -3.62509000          -0.88782000          -0.93099000         
C                    -5.81146000           1.44214000          -2.71954000         
C                    -5.12631000           2.64732000          -0.66945000         
C                    -6.03493000           1.90066000          -1.31084000         
H                    -4.20507000           2.92103000          -1.18286000         
H                    -6.95798000           1.61277000          -0.81266000         
H                    -4.68961000          -0.82994000          -0.62868000         
H                    -3.52307000          -0.77760000          -2.02738000         
H                    -3.22895000          -1.88929000          -0.65800000         
H                    -6.66687000           0.82401000          -3.05808000         
H                    -5.71205000           2.32234000          -3.39039000         
H                    -4.88521000           0.84102000          -2.79265000         
C                    -5.33188000           3.15033000           0.73649000         
C                    -5.50517000           2.02939000           1.76273000         
Ga                   -2.53320000           0.48594000           0.04608000         
H                    -4.45041000           3.76112000           1.02677000         
H                    -6.23205000           3.80003000           0.75578000         
H                    -5.64934000           2.47273000           2.76903000         
H                    -6.38932000           1.40352000           1.52295000         
H                    -4.60834000           1.38333000           1.80583000         
O                    -1.30230000           1.03880000          -1.07600000         
O                    -1.96930000          -0.48380000           1.37680000         
Si                    1.45850000           2.81640000           0.59930000         
Si                    2.57560000           1.15650000          -1.93280000         
Si                   -0.50400000           0.10610000          -2.21230000         
Si                    1.92380000           0.10000000           2.40450000         
Si                    3.25120000          -1.42110000          -0.14180000         
Si                    0.31300000          -2.68320000          -0.73060000         
Si                   -0.88690000          -1.54440000           2.01250000         
O                     2.37070000           2.30520000          -0.73220000         
O                     1.05150000           0.68200000          -2.42960000         
O                    -0.12410000           3.11010000           0.10160000         
O                     1.58690000           1.58970000           1.72800000         
O                     3.37010000          -0.16940000          -1.26110000         
O                    -0.38060000          -1.47570000          -1.65780000         
O                     2.93970000          -0.73080000           1.35480000         
O                     1.95600000          -2.37800000          -0.58260000         
O                    -0.37730000          -2.61520000           0.79420000         
O                     0.52060000          -0.78410000           2.54020000         
O                    -1.37490000           0.12570000          -3.66370000         
O                     3.41310000           1.73500000          -3.26870000         
O                     4.63970000          -2.36580000          -0.10440000         
O                     0.03570000          -4.15410000          -1.49830000         
O                     2.09660000           4.20430000           1.31190000         
O                     2.67030000           0.27940000           3.90280000         
O                    -1.57170000          -2.40550000           3.29440000         
H                     2.83280000           1.14000000           4.31790000         
H                    -0.60660000           2.47810000          -0.50050000         
H                     1.88640000           5.09770000           1.00030000         
H                     4.37600000           1.82260000          -3.32060000         
H                    -0.99490000          -0.12620000          -4.51980000         
H                     0.52940000          -4.96720000          -1.31450000         
H                    -1.03740000          -2.84200000           3.97580000         
H                     5.40920000          -2.18450000           0.45530000         
