54

C                    -5.19197000          -1.24534000           0.86918000         
C                    -4.45535000           0.28157000          -1.75536000         
C                    -5.37758000           0.27110000           0.65471000         
C                    -4.34397000           0.86705000          -0.34308000         
H                    -6.38925000           0.41847000           0.21538000         
H                    -4.56848000           1.95244000          -0.44291000         
H                    -6.00111000          -1.65474000           1.50615000         
H                    -5.25608000          -1.79356000          -0.09175000         
H                    -4.22303000          -1.47497000           1.34932000         
H                    -5.49290000           0.39073000          -2.13636000         
H                    -3.78322000           0.83302000          -2.44516000         
H                    -4.16335000          -0.78736000          -1.77956000         
C                    -5.32758000           1.06764000           1.98868000         
C                    -6.34767000           0.61535000           3.02847000         
Ga                   -2.40399000           0.78487000           0.26564000         
H                    -4.32073000           1.00315000           2.44810000         
H                    -5.53386000           2.13902000           1.75742000         
H                    -6.28669000           1.28333000           3.91319000         
H                    -7.37731000           0.66253000           2.61397000         
H                    -6.12746000          -0.41469000           3.37476000         
O                    -1.30230000           1.03880000          -1.07600000         
O                    -1.96930000          -0.48380000           1.37680000         
Si                    1.45850000           2.81640000           0.59930000         
Si                    2.57560000           1.15650000          -1.93280000         
Si                   -0.50400000           0.10610000          -2.21230000         
Si                    1.92380000           0.10000000           2.40450000         
Si                    3.25120000          -1.42110000          -0.14180000         
Si                    0.31300000          -2.68320000          -0.73060000         
Si                   -0.88690000          -1.54440000           2.01250000         
O                     2.37070000           2.30520000          -0.73220000         
O                     1.05150000           0.68200000          -2.42960000         
O                    -0.12410000           3.11010000           0.10160000         
O                     1.58690000           1.58970000           1.72800000         
O                     3.37010000          -0.16940000          -1.26110000         
O                    -0.38060000          -1.47570000          -1.65780000         
O                     2.93970000          -0.73080000           1.35480000         
O                     1.95600000          -2.37800000          -0.58260000         
O                    -0.37730000          -2.61520000           0.79420000         
O                     0.52060000          -0.78410000           2.54020000         
O                    -1.37490000           0.12570000          -3.66370000         
O                     3.41310000           1.73500000          -3.26870000         
O                     4.63970000          -2.36580000          -0.10440000         
O                     0.03570000          -4.15410000          -1.49830000         
O                     2.09660000           4.20430000           1.31190000         
O                     2.67030000           0.27940000           3.90280000         
O                    -1.57170000          -2.40550000           3.29440000         
H                     2.83280000           1.14000000           4.31790000         
H                    -0.60660000           2.47810000          -0.50050000         
H                     1.88640000           5.09770000           1.00030000         
H                     4.37600000           1.82260000          -3.32060000         
H                    -0.99490000          -0.12620000          -4.51980000         
H                     0.52940000          -4.96720000          -1.31450000         
H                    -1.03740000          -2.84200000           3.97580000         
H                     5.40920000          -2.18450000           0.45530000         
