14

H                    -5.35910000           0.40133000           0.78029000         
C                    -5.87366000           0.12811000          -0.16479000         
C                    -5.96979000           1.39287000          -1.02964000         
C                    -7.22347000          -0.47312000           0.21155000         
C                    -6.58765000           1.13554000          -2.40367000         
H                    -5.26707000          -0.63957000          -0.69344000         
H                    -6.55897000           2.16963000          -0.49684000         
H                    -4.93909000           1.78584000          -1.18294000         
H                    -7.83368000           0.27243000           0.76319000         
H                    -7.05675000          -1.35257000           0.86960000         
H                    -7.77364000          -0.81748000          -0.68697000         
H                    -5.99291000           0.37493000          -2.95694000         
H                    -7.63639000           0.79081000          -2.31346000         
H                    -6.58646000           2.07911000          -2.99015000         
