9

C                    -6.33208000          -0.07869000           0.91183000         
C                    -5.99471000           1.18220000           0.62769000         
C                    -6.91149000          -0.47494000           2.23569000         
H                    -6.18358000          -0.84975000           0.16529000         
H                    -6.12929000           1.97729000           1.35353000         
H                    -5.57181000           1.42475000          -0.34245000         
H                    -7.02341000           0.39599000           2.91600000         
H                    -6.24555000          -1.22058000           2.71726000         
H                    -7.90965000          -0.93340000           2.07268000         
