4

C                    -4.03263000           3.78759000          -0.28087000         
C                    -4.83451000           2.99129000           0.14340000         
H                    -3.20311000           4.37169000          -0.59088000         
H                    -5.44185000           2.22404000           0.54816000         
