16

C                    -5.70052000          -0.43047000           0.59904000         
C                    -5.66068000          -1.90561000           0.19239000         
C                    -5.68755000           0.58372000          -0.54417000         
C                    -5.66803000           0.21875000          -1.84062000         
H                    -4.81352000          -0.24548000           1.24275000         
H                    -6.61688000          -0.26349000           1.20356000         
H                    -5.66958000          -2.53903000           1.10416000         
H                    -6.54785000          -2.16503000          -0.42246000         
H                    -4.73103000          -2.12909000          -0.37341000         
H                    -5.66622000          -0.81679000          -2.15812000         
H                    -5.64415000           0.96496000          -2.62945000         
C                    -5.66847000           2.04487000          -0.23974000         
C                    -5.64923000           2.54716000           1.00136000         
H                    -5.65780000           2.75412000          -1.06407000         
H                    -5.62654000           3.62210000           1.14601000         
H                    -5.64968000           1.91537000           1.88258000         
