15

C                    -6.45723000           1.29371000           1.07949000         
C                    -6.12310000           2.76162000           1.02392000         
C                    -6.36383000           0.55649000           2.19365000         
C                    -4.62666000           3.10984000           1.15173000         
C                    -3.99700000           2.76900000           2.50058000         
H                    -6.81989000           0.81264000           0.17294000         
H                    -6.72049000           3.30821000           1.77960000         
H                    -6.43666000           3.12738000           0.01860000         
H                    -6.62941000          -0.49508000           2.16317000         
H                    -6.04131000           0.98608000           3.13099000         
H                    -4.53377000           4.20916000           1.01084000         
H                    -4.04915000           2.61330000           0.34288000         
H                    -3.94761000           1.67404000           2.65408000         
H                    -4.56777000           3.24584000           3.32531000         
H                    -2.95385000           3.15009000           2.52442000         
