12
3.600562990131948
C        2.025887       1.081397      -2.313840
C        0.696722       0.987117      -1.553980
C        0.563594      -0.374001      -0.903079
O        0.577544       1.963356      -0.551692
O        0.381461       3.238519      -1.165396
O        0.350185      -0.598018       0.248965
H        0.200678       3.798329      -0.399462
H        2.109316       2.070606      -2.756310
H        2.064823       0.333250      -3.099836
H        0.700191      -1.186542      -1.645569
H       -0.137078       1.093199      -2.268312
H        2.855678       0.932399      -1.627298
12
3.6005176023718377
C        2.025894       1.081390      -2.313845
C        0.696729       0.987105      -1.553981
C        0.563604      -0.374000      -0.903075
O        0.577546       1.963337      -0.551693
O        0.381464       3.238545      -1.165396
O        0.350200      -0.598011       0.248899
H        0.200616       3.798325      -0.399432
H        2.109323       2.070598      -2.756316
H        2.064837       0.333247      -3.099842
H        0.700185      -1.186511      -1.645510
H       -0.137081       1.093188      -2.268310
H        2.855683       0.932395      -1.627309
