12
0.0
C        1.532908       1.604066      -2.427649
C        1.603699       0.291328      -1.637748
C        0.325714       0.073281      -0.869618
O        1.401979       2.718198      -1.585625
O        0.144008       2.658596      -0.925123
O        0.262566      -0.144867       0.307359
H        0.355379       2.884160      -0.008130
H        0.702394       1.572864      -3.143863
H        2.468189       1.797301      -2.956877
H       -0.581500       0.108872      -1.501337
H        1.726355      -0.533245      -2.341539
H        2.447309       0.309056      -0.945661
12
-2.272211895615328e-05
C        1.532901       1.604062      -2.427641
C        1.603703       0.291328      -1.637737
C        0.325713       0.073256      -0.869625
O        1.401985       2.718222      -1.585620
O        0.144020       2.658654      -0.925101
O        0.262544      -0.144960       0.307346
H        0.355404       2.884274      -0.008131
H        0.702357       1.572855      -3.143855
H        2.468189       1.797282      -2.956897
H       -0.581499       0.108820      -1.501370
H        1.726369      -0.533246      -2.341533
H        2.447315       0.309061      -0.945645
