12
55.2388103641988
C        1.978657       1.148177      -2.644440
C        0.886970       0.912802      -1.522381
C        0.468997      -0.307054      -0.751851
O        0.954168       2.053103      -0.703410
O        0.038094       3.036384      -1.176190
O        0.422144      -0.395200       0.442297
H       -0.241826       3.472060      -0.359716
H        1.769421       2.104371      -3.064995
H        2.184281       0.321704      -3.306052
H        0.200113      -1.154438      -1.413201
H        0.114574       0.811119      -2.323306
H        2.690875       0.880493      -1.631723
12
55.16820597260448
C        1.978836       1.147962      -2.644504
C        0.887078       0.912919      -1.522340
C        0.468961      -0.306911      -0.751869
O        0.954375       2.053270      -0.703566
O        0.037867       3.036299      -1.176058
O        0.422368      -0.395213       0.442289
H       -0.242203       3.471663      -0.359463
H        1.769786       2.104141      -3.065160
H        2.184353       0.321357      -3.306007
H        0.199653      -1.154131      -1.413257
H        0.114489       0.811503      -2.323119
H        2.690848       0.880320      -1.632418
