12
119.56382295023468
C        1.844452       1.213061      -2.937748
C        1.185228       0.824508      -1.601895
C        0.379398      -0.148854      -0.753003
O        1.205450       2.114552      -0.777708
O        0.005507       2.823939      -1.000598
O        0.327059      -0.105884       0.442444
H       -0.286858       3.077028      -0.116622
H        1.350049       2.010427      -3.489990
H        2.339365       0.432931      -3.495937
H       -0.113462      -0.961492      -1.335897
H        0.754225       0.477886      -2.870441
H        2.160544       0.674236      -1.092807
12
119.47606188487043
C        1.844081       1.212540      -2.937619
C        1.185130       0.824491      -1.601710
C        0.379341      -0.148874      -0.752888
O        1.205337       2.114329      -0.777645
O        0.005418       2.823862      -1.000406
O        0.326866      -0.105996       0.442531
H       -0.286920       3.076940      -0.116447
H        1.349869       2.010012      -3.489868
H        2.338787       0.432314      -3.495830
H       -0.113506      -0.961594      -1.335817
H        0.753984       0.477828      -2.870840
H        2.160431       0.674045      -1.092575
