12
21.06123968137217
C        1.556161       1.654359      -2.440999
C        1.453917       0.362318      -1.624411
C        0.296276      -0.114540      -0.794537
O        1.488400       2.680894      -1.341785
O        0.082845       2.820382      -1.185243
O        0.334504      -0.333798       0.387007
H        0.011118       3.190647      -0.294321
H        0.683689       1.969791      -3.019764
H        2.497895       1.585773      -2.951257
H       -0.620575      -0.297635      -1.377793
H        1.283658      -0.340444      -2.456289
H        2.406139       0.299549      -1.087531
12
21.020093358067243
C        1.555974       1.654456      -2.440604
C        1.453987       0.361975      -1.624399
C        0.296309      -0.115089      -0.794688
O        1.488454       2.680760      -1.341841
O        0.082901       2.821139      -1.185740
O        0.334428      -0.334382       0.386801
H        0.011161       3.192073      -0.295098
H        0.683307       1.970241      -3.018898
H        2.497612       1.586372      -2.951182
H       -0.620411      -0.298473      -1.378075
H        1.283778      -0.340815      -2.456376
H        2.406158       0.298853      -1.087879
