12

C                     2.66136000           1.26589000          -2.22938000         
C                     1.43813000           0.96405000          -1.75658000         
C                     1.06118000          -0.43496000          -1.45623000         
O                     0.50858000           1.92884000          -1.53910000         
O                     0.73562000           3.18681000          -1.75320000         
O                     1.84315000          -1.35769000          -1.62535000         
H                     0.30649000           3.37566000          -2.62615000         
H                     2.94171000           2.29031000          -2.45153000         
H                     3.40500000           0.49471000          -2.40405000         
H                     0.06748000          -0.64819000          -1.07612000         
H                    -1.54244000           1.06667000           0.20334000         
H                    -1.03698000           1.20788000           0.67864000         
