12

C                     2.57236000           0.73926000          -1.78329000         
C                     1.73654000           0.29917000          -0.83670000         
C                     1.30021000          -1.10853000          -0.75249000         
O                    -1.76644000           4.40994000          -2.50449000         
O                    -1.95257000           3.98254000          -1.45291000         
O                     1.68926000          -1.94390000          -1.55406000         
H                     0.64575000           2.89500000          -2.66148000         
H                     2.86339000           1.78463000          -1.80376000         
H                     2.97128000           0.07368000          -2.54226000         
H                     0.62039000          -1.40623000           0.03858000         
H                     0.34887000           2.61317000          -2.08402000         
H                     1.36028000           1.00125000          -0.09883000         
