12

C                     2.50816000           1.13256000          -2.28411000         
C                     1.70923000           0.94973000          -1.22039000         
C                     1.30569000          -0.40294000          -0.78042000         
O                    -1.39483000           2.38566000          -2.14044000         
O                     1.25042000           2.01296000          -0.52212000         
O                     1.68749000          -1.40450000          -1.36576000         
H                     1.46656000           2.92676000          -0.75864000         
H                     2.79372000           2.13298000          -2.59429000         
H                     2.88741000           0.29303000          -2.85854000         
H                     0.65464000          -0.50927000           0.08118000         
H                    -1.00387000           1.52481000          -2.43490000         
H                    -1.47532000           2.29823000          -1.15729000         
