12

C                     1.55192000           1.81666000          -1.08337000         
C                     1.03932000           0.77921000          -0.41085000         
C                     1.47742000          -0.61219000          -0.64144000         
O                    -0.11070000           1.63369000          -3.88161000         
O                     1.10760000           3.06482000          -0.83494000         
O                     2.33509000          -0.88079000          -1.46812000         
H                     1.46499000           3.82006000          -1.32183000         
H                     2.32252000           1.66658000          -1.83501000         
H                     0.56391000           0.91720000          -3.77065000         
H                     1.02539000          -1.41219000          -0.06481000         
H                    -0.65722000           1.59018000          -3.05689000         
H                     0.26905000           0.95677000           0.33382000         
