12

C                     2.82138000           0.81270000          -1.86699000         
C                     1.97013000           0.05014000          -1.23261000         
C                     1.12096000          -0.71348000          -0.59835000         
O                    -0.72862000           3.18788000          -2.62256000         
O                    -0.07492000           3.34223000          -1.48978000         
O                    -0.16626000          -0.33512000          -0.43130000         
H                     0.81629000           3.68497000          -1.75625000         
H                     2.93332000           1.85256000          -1.58227000         
H                     3.42319000           0.40112000          -2.66915000         
H                     1.45256000          -1.66589000          -0.19919000         
H                    -0.67348000           2.21732000          -2.81691000         
H                    -0.50524000           0.50558000          -0.77035000         
