12

C                     1.52671000           1.74490000          -1.63458000         
C                     0.94632000           0.90997000          -0.75393000         
C                     1.42880000          -0.46922000          -0.53450000         
O                     1.07838000           3.00762000          -1.84274000         
O                     0.05939000           3.49962000          -1.21375000         
O                     2.38253000          -0.91657000          -1.15236000         
H                     0.18565000           4.48064000          -1.26491000         
H                     2.38359000           1.41192000          -2.21191000         
H                     1.02727000          -0.27974000          -3.82915000         
H                     0.92156000          -1.09914000           0.18847000         
H                     0.35965000          -0.18799000          -3.61205000         
H                     0.08945000           1.23799000          -0.17429000         
