12

C                     2.85249000           1.12328000          -1.99890000         
C                     2.22183000           1.01944000          -0.82211000         
C                     0.75426000           0.70593000          -0.68147000         
O                    -1.10913000           2.15401000          -2.36242000         
O                    -1.10365000           0.94607000          -1.83182000         
O                     0.14792000           0.53294000          -1.94255000         
H                     0.30375000           1.55504000          -0.11586000         
H                     3.91173000           1.35640000          -2.02399000         
H                     2.33679000           0.98128000          -2.94314000         
H                     0.63874000          -0.22640000          -0.08880000         
H                    -1.36040000           2.01851000          -3.31170000         
H                     2.79496000           1.17352000           0.08707000         
