12

C                     1.81249000           1.78500000          -1.64304000         
C                     0.66385000           0.87381000          -1.19041000         
C                     1.12090000          -0.55386000          -1.10718000         
O                    -0.40874000           0.95450000          -2.09262000         
O                     1.40377000           3.12650000          -1.65078000         
O                     1.52773000          -1.13717000          -2.09990000         
H                     0.95896000           3.28688000          -2.52368000         
H                     2.66462000           1.68896000          -0.93628000         
H                     2.18969000           1.48653000          -2.64899000         
H                     1.08577000          -1.07820000          -0.15752000         
H                    -0.96343000           1.73032000          -1.81648000         
H                     0.33368000           1.17673000          -0.16883000         
