12

C                     2.74023000           1.33309000          -1.84488000         
C                     1.79839000           1.10653000          -0.92410000         
C                     0.42739000           0.60638000          -1.29629000         
O                    -0.19954000           1.50706000          -2.18125000         
O                    -0.63007000           2.52029000          -1.45107000         
O                     0.55166000          -0.64257000          -1.91955000         
H                    -0.04513000           3.28078000          -1.70217000         
H                     3.71793000           1.69499000          -1.54398000         
H                     2.54383000           1.16140000          -2.89893000         
H                    -0.17152000           0.47554000          -0.36179000         
H                    -0.37010000          -0.99341000          -2.03350000         
H                     2.02623000           1.28992000           0.12182000         
