12

C                     2.33606000           1.86949000          -1.77762000         
C                     1.50079000           2.20551000          -0.79077000         
C                     0.29367000          -0.92267000          -1.59498000         
O                    -0.30421000          -0.07278000          -2.45213000         
O                     0.75254000           3.32890000          -0.85332000         
O                     1.07684000          -1.75794000          -2.01375000         
H                     0.78747000           3.93426000          -1.60808000         
H                     2.43646000           2.49332000          -2.66013000         
H                     2.92403000           0.96014000          -1.70538000         
H                     0.08765000          -0.86160000          -0.53088000         
H                    -0.91896000           0.60000000          -2.12873000         
H                     1.41696000           1.56336000           0.08006000         
