12

C                     3.20668000           0.95376000          -1.62309000         
C                     1.96453000           1.44047000          -1.52885000         
C                     0.82556000           0.87401000          -2.29587000         
O                    -0.41827000           1.39993000          -2.19046000         
O                    -0.67786000           2.40901000          -1.42214000         
O                     0.99909000          -0.07856000          -3.03981000         
H                    -0.66818000           3.19542000          -2.02544000         
H                     4.00777000           1.40184000          -1.04403000         
H                     3.44033000           0.11464000          -2.27093000         
H                    -0.74347000          -0.51483000           0.17172000         
H                    -1.33850000          -0.13814000           0.09914000         
H                     1.79162000           2.28245000          -0.86594000         
