12

C                     0.98727000           1.12109000          -2.53177000         
C                     0.19210000           0.29991000          -1.55120000         
C                     0.12065000           0.52984000          -0.22714000         
O                     2.36851000           0.88910000          -2.36374000         
O                     0.72178000           1.57152000           0.39105000         
O                     2.86832000           1.91203000          -1.69626000         
H                     1.18193000           2.28223000          -0.07108000         
H                     0.70001000           2.19803000          -2.49297000         
H                     0.72954000           0.77758000          -3.55607000         
H                    -0.46967000          -0.14703000           0.38157000         
H                    -0.36791000          -0.54230000          -1.94715000         
H                     3.35667000           2.44809000          -2.37084000         
