12

C                     1.59070000           1.52331000          -2.54313000         
C                     0.80936000           1.79402000          -1.48347000         
C                     1.33433000           0.95247000          -0.38393000         
O                     2.50219000           0.62115000          -2.18158000         
O                     1.79361000           1.75579000           0.66821000         
O                     2.42494000           0.22853000          -0.93736000         
H                     0.98957000           2.15386000           1.09383000         
H                     1.50109000           1.95827000          -3.52936000         
H                    -0.50949000          -0.00515000          -3.92783000         
H                     0.55705000           0.23763000          -0.03198000         
H                    -0.58131000          -0.36456000          -3.32202000         
H                    -0.02284000           2.48477000          -1.45698000         
