12

C                     1.35069000           0.94821000          -2.86056000         
C                     0.38607000           0.46355000          -1.85284000         
C                     1.13272000          -0.11270000          -0.89457000         
O                     2.63700000           0.59011000          -2.37500000         
O                     0.92277000           3.27734000          -0.17341000         
O                     2.41674000          -0.01530000          -1.23819000         
H                     1.01888000           2.61565000           0.55700000         
H                     1.27153000           2.05171000          -2.95583000         
H                     1.15672000           0.45170000          -3.83443000         
H                     0.76334000          -0.57865000           0.00892000         
H                    -0.69227000           0.54856000          -1.86481000         
H                     0.02502000           3.09993000          -0.55186000         
