12

C                     0.79486000           1.08883000          -3.08236000         
C                     0.28921000           0.68942000          -1.72436000         
C                     1.25880000           1.05350000          -0.58802000         
O                     1.81524000           0.59926000          -3.53825000         
O                     1.46317000           2.44532000          -0.52893000         
O                     2.48621000           0.38412000          -0.73215000         
H                     0.72615000           2.82477000           0.01805000         
H                     3.07615000           0.94574000          -1.29995000         
H                     0.23460000           1.80202000          -3.67829000         
H                     0.81911000           0.70752000           0.37645000         
H                     0.10329000          -0.40608000          -1.71772000         
H                    -0.67759000           1.20567000          -1.54007000         
