12

C                     0.80030000           0.79401000          -3.17618000         
C                    -0.43352000           0.49937000          -2.74929000         
C                     1.66047000           1.46720000          -0.31514000         
O                     1.88722000           0.72589000          -2.36327000         
O                     2.77923000           1.60031000           0.51310000         
O                     1.81887000           0.32500000          -1.12811000         
H                     2.56550000           2.33596000           1.14463000         
H                     1.51980000           2.40991000          -0.89976000         
H                     0.93960000           1.10590000          -4.20589000         
H                     0.74717000           1.31386000           0.30079000         
H                    -0.62062000           0.18809000          -1.72667000         
H                    -1.27481000           0.57460000          -3.42981000         
