12

C                     1.25439000           2.12978000          -2.61698000         
C                    -0.05307000           1.88843000          -2.76378000         
C                     1.46607000          -0.08226000          -0.43727000         
O                     2.11747000           1.20489000          -2.12416000         
O                     1.89630000           1.04277000           0.29332000         
O                     1.76365000          -0.01089000          -1.82214000         
H                     1.14060000           1.68754000           0.29388000         
H                     1.64300000           3.10427000          -2.89423000         
H                     0.37318000          -0.24830000          -0.30063000         
H                     1.97893000          -0.97051000          -0.01461000         
H                    -0.48710000           0.93157000          -2.49373000         
H                    -0.70422000           2.66280000          -3.15527000         
