12

C                     1.78748000           0.22606000          -3.26925000         
C                    -0.38670000           1.56313000          -0.20814000         
C                     0.91222000           1.44931000          -0.50863000         
O                     2.33885000           0.39560000          -1.98950000         
O                     1.79874000           2.40683000          -0.14508000         
O                     1.30276000           0.37036000          -1.20156000         
H                     1.54131000           3.18382000           0.37002000         
H                     1.13868000           1.09301000          -3.53177000         
H                     2.59910000           0.16076000          -4.02037000         
H                     1.20143000          -0.72045000          -3.32104000         
H                    -1.07550000           0.78992000          -0.53721000         
H                    -0.76917000           2.42176000           0.32693000         
