12

C                     1.07855000           1.51038000          -2.13288000         
C                     0.17040000           1.93181000          -0.97292000         
C                     1.46874000          -0.76808000          -1.41264000         
O                     2.39991000           1.92281000          -1.89724000         
O                     1.04551000           0.14099000          -2.32401000         
O                     1.40678000          -1.95746000          -1.67228000         
H                     0.17484000           3.03801000          -0.87444000         
H                     2.42492000           2.90433000          -2.04544000         
H                     0.70153000           1.98086000          -3.06953000         
H                     1.86828000          -0.45377000          -0.45299000         
H                    -0.87051000           1.59689000          -1.16632000         
H                     0.52015000           1.49323000          -0.01509000         
