12

C                     0.52380000           1.33853000          -1.91756000         
C                     0.41125000           0.54790000          -0.63701000         
C                     1.03104000          -0.82310000          -0.70758000         
O                     3.21971000           2.80851000          -3.47950000         
O                     0.06925000           2.47256000          -1.99857000         
O                     1.57643000          -1.23867000          -1.71847000         
H                    -0.37497000           2.90393000          -1.25442000         
H                     3.02187000           2.84457000          -2.50983000         
H                     2.33251000           2.85511000          -3.91701000         
H                     0.99174000          -1.45971000           0.16998000         
H                    -0.66411000           0.43298000          -0.38508000         
H                     0.91168000           1.11402000           0.17683000         
