12

C                     0.94277000           1.12097000          -1.97455000         
C                     0.56790000           0.36204000          -0.72733000         
C                     1.32489000          -0.92929000          -0.56752000         
O                     2.07772000           1.54445000          -2.15680000         
O                     0.39519000           4.47837000          -3.31062000         
O                     2.14941000          -1.29963000          -1.38965000         
H                     0.23882000           4.09953000          -2.40917000         
H                     2.78758000           1.41185000          -1.51211000         
H                     0.66929000           3.70315000          -3.86241000         
H                     1.12658000          -1.55036000           0.29956000         
H                    -0.51609000           0.12405000          -0.76499000         
H                     0.75787000           1.00673000           0.15663000         
