12

C                     1.69073000           1.70996000          -1.82795000         
C                     0.91034000           0.75855000          -0.96288000         
C                     1.44252000          -0.64815000          -1.01204000         
O                     3.00105000           1.92342000          -1.58183000         
O                     1.13743000           2.29784000          -2.74533000         
O                     2.40129000          -0.95122000          -1.70615000         
H                    -1.66211000           2.84561000          -1.95252000         
H                     3.52316000           2.53357000          -2.12184000         
H                    -1.80881000           2.42766000          -2.50489000         
H                     0.95670000          -1.41439000          -0.41713000         
H                    -0.15150000           0.73669000          -1.28927000         
H                     0.94831000           1.12046000           0.08602000         
