12

C                     0.85173000           1.51178000          -1.99966000         
C                     0.61452000           1.74041000          -0.50232000         
C                     1.95329000          -0.62863000          -1.82189000         
O                     1.92820000           0.66965000          -2.20547000         
O                     1.12657000           2.73873000          -2.62023000         
O                     2.94992000          -1.30067000          -2.02829000         
H                     0.26829000           3.23598000          -2.66922000         
H                     1.51537000           2.19574000          -0.03871000         
H                    -0.05215000           1.05468000          -2.46709000         
H                     1.09496000          -1.08572000          -1.33836000         
H                    -0.24881000           2.42387000          -0.35729000         
H                     0.38719000           0.78419000           0.01274000         
