12

C                     0.94842000           1.81997000          -2.49449000         
C                     0.54021000           0.63156000          -1.68189000         
C                     1.27750000          -0.44585000          -1.76126000         
O                     2.32652000           2.09610000          -2.37148000         
O                     0.16472000           2.95408000          -2.21540000         
O                     1.97260000          -1.41739000          -1.80400000         
H                     0.43972000           3.30344000          -1.32641000         
H                     2.49260000           2.54284000          -1.50240000         
H                     0.76834000           1.52602000          -3.54563000         
H                     0.81018000          -0.50204000           0.81743000         
H                    -0.34300000           0.65219000          -1.04144000         
H                     0.99129000           0.17908000           0.89118000         
