12

C                     1.31851000           1.16386000          -1.65874000         
C                     0.02089000           1.25753000          -0.83745000         
C                     1.56763000          -0.26883000          -2.04486000         
O                     2.41447000           1.60214000          -0.89218000         
O                     1.21253000           1.91610000          -2.84522000         
O                     2.55454000          -0.56536000          -2.69775000         
H                     0.97749000           2.84877000          -2.59772000         
H                     2.36361000           2.59091000          -0.82156000         
H                    -0.84336000           0.90043000          -1.43860000         
H                     0.87742000          -1.05436000          -1.74899000         
H                     0.09760000           0.63974000           0.08336000         
H                    -0.17223000           2.30907000          -0.53609000         
