12

C                     0.45906000           1.40531000          -2.44030000         
C                     0.28316000           0.58771000          -1.39029000         
C                     0.86918000          -0.76660000          -1.33177000         
O                     3.16699000           2.13149000          -0.68015000         
O                    -0.08414000           2.64283000          -2.46134000         
O                     1.54827000          -1.20646000          -2.24628000         
H                    -0.61325000           2.99104000          -1.72918000         
H                     2.92026000           2.74923000          -1.41376000         
H                     1.04769000           1.08582000          -3.29463000         
H                     0.69416000          -1.38185000          -0.45559000         
H                    -0.30693000           0.92309000          -0.54267000         
H                     2.40463000           2.17837000          -0.04983000         
