12

C                     1.18751000           0.89175000          -2.03422000         
C                     0.18150000           1.59783000          -1.11219000         
C                     1.57807000          -0.45801000          -1.49337000         
O                     2.32981000           1.68739000          -2.22846000         
O                    -0.21382000           2.82447000          -1.66502000         
O                     2.34318000          -1.17134000          -2.12220000         
H                     0.46443000           3.49533000          -1.38992000         
H                     2.74870000           1.83476000          -1.33964000         
H                     0.70018000           0.73653000          -3.02113000         
H                     1.18411000          -0.81100000          -0.54490000         
H                    -0.72340000           0.96437000          -0.99152000         
H                     0.60881000           1.74792000          -0.09322000         
