12

C                     2.17102000           0.58321000          -1.20586000         
C                     0.67608000           0.85217000          -0.94940000         
C                    -0.09827000           0.99661000          -2.23453000         
O                     2.94365000           1.74401000          -1.04596000         
O                    -0.75509000           2.13064000          -2.54650000         
O                    -0.16580000           0.04281000          -2.99835000         
H                    -0.72949000           2.91070000          -1.97701000         
H                     2.66174000           2.39247000          -1.73737000         
H                     2.36155000           0.10617000          -2.19453000         
H                     2.52694000          -0.13969000          -0.44355000         
H                     0.23287000          -0.01673000          -0.41850000         
H                     0.56391000           1.73761000          -0.28424000         
