12

C                     1.22042000           1.56289000          -2.52001000         
C                     0.37122000           0.22849000          -0.41332000         
C                     1.24167000           0.33761000          -1.63188000         
O                     2.49873000           2.13859000          -2.62741000         
O                     0.27893000           2.51881000          -2.09827000         
O                     1.98352000          -0.58961000          -1.91938000         
H                     0.62522000           2.93814000          -1.26797000         
H                     2.79910000           2.37389000          -1.71049000         
H                     0.92001000           1.22884000          -3.53535000         
H                     0.52858000          -0.74660000           0.09548000         
H                    -0.69617000           0.30723000          -0.70767000         
H                     0.61786000           1.04172000           0.30049000         
