12

C                     1.18486000           2.12362000          -2.49324000         
C                     0.35354000           0.76676000          -0.70461000         
C                     0.94492000          -0.56028000          -1.09969000         
O                     2.38810000           2.05380000          -1.76435000         
O                     0.04894000           1.59960000          -1.81089000         
O                     1.15828000          -0.84277000          -2.26861000         
H                     0.97520000           3.18206000          -2.76929000         
H                     2.43830000           2.87435000          -1.20880000         
H                     1.31916000           1.57787000          -3.45001000         
H                     1.18080000          -1.28359000          -0.32644000         
H                    -0.59879000           0.55638000          -0.17461000         
H                     0.99579000           1.29222000           0.03473000         
