12

C                     1.67562000           1.79215000          -2.04196000         
C                    -0.37153000          -0.15160000          -0.67604000         
C                     0.44885000          -0.94895000          -1.30740000         
O                     2.79074000           2.51958000          -2.46199000         
O                     0.56423000           2.63183000          -1.89778000         
O                     1.22068000          -1.64322000          -1.90231000         
H                     0.77830000           3.25400000          -1.15574000         
H                     3.16518000           2.93256000          -1.64139000         
H                     1.44071000           1.03011000          -2.81470000         
H                     1.89672000           1.24900000          -1.09301000         
H                    -1.21824000           0.25804000          -1.21527000         
H                    -0.00217000           0.41649000           0.17179000         
