12

C                     1.04111000           2.14190000          -3.36998000         
C                     0.86657000           0.70707000          -0.16579000         
C                     1.32089000          -0.64429000          -0.60927000         
O                     2.25672000           2.09030000          -3.27652000         
O                     0.34071000           3.06497000          -2.67922000         
O                     1.63092000          -0.83651000          -1.77373000         
H                     0.78122000           3.70002000          -2.09690000         
H                     1.66939000           1.45177000          -0.34889000         
H                     0.51896000           1.43722000          -4.00766000         
H                     1.37654000          -1.46062000           0.10324000         
H                    -0.04390000           0.99946000          -0.72935000         
H                     0.62998000           0.68872000           0.91828000         
