12
142.4170386560054
C        1.682090       1.699064      -2.675575
C        0.307219       0.653175      -0.851821
C        1.193616      -0.508588      -0.750587
O        0.520617       2.325174      -2.490344
O        0.692062       2.815105      -1.125102
O        2.301674      -0.658253      -1.183504
H        1.248255       3.628987      -1.641412
H        2.508001       1.439193      -2.056625
H        1.727082       1.429945      -3.728352
H        0.727526      -1.334782      -0.135332
H       -0.650173       0.426875      -1.306212
H        0.150049       1.033715       0.153584
12
142.3449234726013
C        1.682235       1.699032      -2.675839
C        0.307001       0.653506      -0.851691
C        1.193420      -0.508208      -0.750570
O        0.520696       2.325377      -2.490573
O        0.692304       2.815588      -1.125304
O        2.301437      -0.657814      -1.183596
H        1.248243       3.628860      -1.641303
H        2.507995       1.439167      -2.056716
H        1.727357       1.429888      -3.728580
H        0.727490      -1.334470      -0.135154
H       -0.650472       0.427360      -1.305974
H        0.149974       1.034044       0.153726
12
142.05807695690964
C        1.682813       1.698903      -2.676896
C        0.306133       0.654824      -0.851166
C        1.192634      -0.506691      -0.750496
O        0.521011       2.326186      -2.491493
O        0.693272       2.817516      -1.126116
O        2.300488      -0.656083      -1.183962
H        1.248189       3.628353      -1.640861
H        2.507972       1.439068      -2.057084
H        1.728461       1.429657      -3.729492
H        0.727347      -1.333217      -0.134437
H       -0.651661       0.429294      -1.305021
H        0.149670       1.035356       0.154296
