12
154.32095546562778
C        1.769428       1.894473      -2.845519
C        0.190563       0.680830      -0.777014
C        1.144667      -0.420108      -0.704997
O        0.560189       2.141298      -2.434305
O        0.665331       2.543739      -1.094276
O        2.265382      -0.529177      -1.114266
H        1.413315       3.677703      -1.656946
H        2.657934       1.653828      -2.298162
H        1.804948       1.651122      -3.904592
H        0.686905      -1.249623      -0.102771
H       -0.767513       0.424457      -1.213999
H        0.029306       1.033479       0.242361
12
154.26650257802976
C        1.769618       1.894738      -2.845947
C        0.190390       0.680883      -0.776832
C        1.144583      -0.419946      -0.704868
O        0.560433       2.140900      -2.434319
O        0.665415       2.543442      -1.094338
O        2.265305      -0.528951      -1.114133
H        1.413301       3.677490      -1.656695
H        2.658174       1.654142      -2.298619
H        1.805163       1.651534      -3.905036
H        0.686851      -1.249497      -0.102652
H       -0.767681       0.424507      -1.213841
H        0.029111       1.033483       0.242554
12
154.052857546214
C        1.770264       1.895526      -2.847315
C        0.189486       0.681181      -0.776188
C        1.144199      -0.419183      -0.704509
O        0.560978       2.139122      -2.434101
O        0.665639       2.542143      -1.094515
O        2.264944      -0.527637      -1.113822
H        1.413588       3.676551      -1.655746
H        2.659035       1.655525      -2.299937
H        1.805946       1.652451      -3.906325
H        0.686787      -1.248930      -0.102326
H       -0.768590       0.424778      -1.213154
H        0.028222       1.033640       0.243233
12
153.99989137288685
C        1.770372       1.895674      -2.847524
C        0.189202       0.681295      -0.776069
C        1.144104      -0.418953      -0.704467
O        0.561041       2.138637      -2.433991
O        0.665698       2.541830      -1.094558
O        2.264854      -0.527125      -1.113821
H        1.413774       3.676367      -1.655545
H        2.659175       1.655858      -2.300088
H        1.806054       1.652455      -3.906458
H        0.686848      -1.248794      -0.102309
H       -0.768873       0.424852      -1.213002
H        0.027946       1.033749       0.243370
