12
0.0
C        1.353383       1.425762      -2.190013
C        0.578920       0.575276      -1.182506
C        1.258058      -0.725207      -0.885884
O        0.720848       2.646339      -2.472527
O        0.738982       3.481382      -1.315694
O        2.298091      -1.094418      -1.352597
H        0.930150       4.353897      -1.683558
H        2.374551       1.592862      -1.825782
H        1.398016       0.933013      -3.164057
H        0.698156      -1.353844      -0.164497
H       -0.429872       0.371658      -1.550887
H        0.469727       1.132581      -0.247597
12
-2.0519557438092306e-05
C        1.353398       1.425760      -2.190022
C        0.578927       0.575281      -1.182508
C        1.258051      -0.725208      -0.885893
O        0.720852       2.646312      -2.472532
O        0.738966       3.481367      -1.315676
O        2.298064      -1.094445      -1.352584
H        0.930121       4.353903      -1.683537
H        2.374581       1.592862      -1.825798
H        1.398020       0.933008      -3.164060
H        0.698165      -1.353800      -0.164505
H       -0.429867       0.371667      -1.550892
H        0.469732       1.132593      -0.247594
