12

C                     1.95998000           0.76028000          -1.96447000         
C                     1.22920000           0.69070000          -0.84482000         
C                     1.37248000          -0.40634000           0.13240000         
O                     1.78509000           1.78670000          -2.82042000         
O                    -1.07541000           3.21301000          -2.51589000         
O                     2.17690000          -1.30978000          -0.03831000         
H                    -0.29828000           3.47987000          -1.96308000         
H                     2.30524000           1.84594000          -3.63342000         
H                     2.69736000          -0.00380000          -2.19559000         
H                     0.75006000          -0.40905000           1.02068000         
H                    -1.01195000           2.22664000          -2.57763000         
H                     0.49851000           1.46573000          -0.63525000         
