12

C                     1.83217000           1.12984000          -2.10527000         
C                     1.61080000           0.31984000          -1.23991000         
C                     1.34477000          -0.64700000          -0.20989000         
O                    -0.41497000           3.24518000          -1.30632000         
O                    -0.30315000           4.53795000          -1.08195000         
O                     1.87075000          -1.74679000          -0.25483000         
H                     0.64399000           4.74986000          -1.28437000         
H                     2.08013000          -1.22421000          -3.97476000         
H                     2.02177000           1.83967000          -2.86660000         
H                     0.67585000          -0.39921000           0.60678000         
H                     1.37834000          -1.29057000          -3.90834000         
H                    -0.35125000           2.82534000          -0.41035000         
