12

C                     0.43460000           2.51209000          -2.06251000         
C                     0.77804000           2.29929000          -0.78170000         
C                     0.83533000           0.82479000          -0.62680000         
O                     0.27764000           1.33180000          -2.66209000         
O                     0.47040000           0.29383000          -1.89378000         
O                     2.13515000           0.40371000          -0.30717000         
H                     2.43765000           0.93268000           0.47709000         
H                     2.14022000          -1.01118000          -3.81879000         
H                     0.30681000           3.47497000          -2.53694000         
H                     0.10759000           0.48605000           0.14297000         
H                     1.48858000          -1.26393000          -3.93187000         
H                     0.97720000           3.05593000          -0.03415000         
