12

C                     1.23899000           1.89026000          -2.19336000         
C                     0.98433000           1.06586000          -1.16386000         
C                     1.53958000          -0.33013000          -1.12986000         
O                     0.74857000           3.15280000          -2.25473000         
O                     0.00058000           3.65869000          -1.32567000         
O                     1.09513000          -1.06613000          -2.23712000         
H                     0.53214000           4.40928000          -0.95758000         
H                     2.64919000          -0.28739000          -1.14945000         
H                     1.85810000           1.54216000          -3.01498000         
H                     1.24419000          -0.84373000          -0.18760000         
H                     0.12994000          -1.24692000          -2.08921000         
H                     0.36846000           1.39517000          -0.33239000         
