12

C                     1.03991000           1.82031000          -2.18007000         
C                     0.71751000           1.01289000          -1.15567000         
C                     1.01965000          -0.45795000          -1.19395000         
O                     0.76839000           3.14863000          -2.17489000         
O                     0.17743000           3.73828000          -1.18405000         
O                     2.40282000          -0.67497000          -1.27756000         
H                     0.74483000           4.52620000          -0.98814000         
H                     2.63275000          -0.71301000          -2.24264000         
H                     1.53343000           1.40497000          -3.05355000         
H                     0.64626000          -0.93633000          -0.26429000         
H                     0.48553000          -0.94145000          -2.04451000         
H                     0.22069000           1.41233000          -0.27649000         
