12

C                     1.18126000           1.85112000          -1.70336000         
C                     0.49289000           2.51478000          -0.75523000         
C                     1.12813000          -0.37514000          -0.70306000         
O                     1.44913000           0.51694000          -1.67340000         
O                     0.29259000           3.84794000          -0.85025000         
O                     1.49073000          -1.53334000          -0.81381000         
H                     0.65133000           4.37847000          -1.57659000         
H                     2.09308000          -1.03270000          -3.85346000         
H                     1.55997000           2.41065000          -2.55340000         
H                     0.56962000          -0.09239000           0.17994000         
H                     1.39592000          -1.15618000          -3.84247000         
H                     0.08455000           2.00974000           0.10930000         
