12

C                     0.86582000           0.46367000          -1.89422000         
C                     0.51826000           0.35111000          -0.60661000         
C                     1.35605000          -0.35378000           0.38466000         
O                     0.05775000           1.11656000          -2.75324000         
O                     1.37474000           3.98756000          -3.03655000         
O                     2.41551000          -0.87219000           0.06908000         
H                     1.08772000           3.75734000          -2.11715000         
H                     2.01366000           3.27235000          -3.28342000         
H                     1.79450000           0.03371000          -2.26009000         
H                     1.02074000          -0.41310000           1.41473000         
H                     0.29949000           1.20567000          -3.68533000         
H                    -0.41503000           0.79100000          -0.26767000         
