12

C                     1.53941000           2.33133000          -1.04997000         
C                     1.55709000           1.21862000          -0.58412000         
C                     1.57286000          -0.10918000          -0.03291000         
O                     1.52150000           3.57154000          -1.57269000         
O                     0.26553000           3.96034000          -1.48250000         
O                     2.20761000          -0.99184000          -0.58565000         
H                     0.27102000           4.68606000          -0.80611000         
H                     2.11091000          -0.94566000          -3.74533000         
H                    -0.31495000           0.54937000          -2.90171000         
H                     1.01807000          -0.32659000           0.87310000         
H                     1.45177000          -1.20390000          -3.74809000         
H                    -0.81162000           0.59981000          -2.39981000         
