12

C                     0.93809000           1.98250000          -2.30671000         
C                    -0.07449000           1.22906000          -1.86229000         
C                     2.17645000          -1.28948000          -0.86785000         
O                     1.08028000           3.28692000          -1.96538000         
O                     0.24523000           3.89726000          -1.18690000         
O                     3.23049000          -1.43734000          -0.27305000         
H                     0.68498000           4.75955000          -0.97731000         
H                     2.17170000          -1.19680000          -1.94838000         
H                     1.67449000           1.53564000          -2.96669000         
H                     1.24359000          -1.24803000          -0.31628000         
H                    -0.14773000           0.18955000          -2.16492000         
H                    -0.83389000           1.63107000          -1.20004000         
