12

C                    -0.11927000           1.02830000          -2.67911000         
C                    -0.90341000           1.04342000          -1.76390000         
C                     2.04074000           1.09257000          -0.07420000         
O                     2.09560000           2.35213000          -0.55227000         
O                     1.19035000           3.21704000          -0.23072000         
O                     2.89379000           0.28349000          -0.39547000         
H                     1.32030000           3.96286000          -0.86945000         
H                     2.14454000          -1.11105000          -3.81403000         
H                     0.57690000           1.01812000          -3.47587000         
H                     1.23647000           0.79063000           0.59043000         
H                     1.49713000          -1.39764000          -3.81748000         
H                    -1.58393000           1.06004000          -0.95372000         
