12

C                     0.45003000          -0.24975000          -0.74950000         
C                     0.47120000           1.08123000          -0.88351000         
C                     1.66056000           1.81179000          -1.39273000         
O                     1.63685000           3.15549000          -1.56299000         
O                     0.58241000           3.86357000          -1.31679000         
O                     2.68042000           1.20300000          -1.67359000         
H                     0.90134000           4.59199000          -0.72623000         
H                     2.11777000          -0.98596000          -3.81504000         
H                     1.30805000          -0.86106000          -1.01146000         
H                    -0.44233000          -0.74129000          -0.37528000         
H                     1.44157000          -1.16850000          -3.91817000         
H                    -0.41867000           1.63940000          -0.61052000         
