48

C                     5.01598000          -1.74949000           0.15191000         
C                     4.16756000          -0.47444000           0.05974000         
C                     4.42806000           0.37054000           1.32149000         
C                     4.58077000           0.28808000          -1.21357000         
Ga                    2.18081000          -1.02080000          -0.06636000         
H                     4.84812000          -2.39774000          -0.73429000         
H                     4.75857000          -2.31787000           1.06751000         
H                     6.09802000          -1.49331000           0.19785000         
H                     3.84805000           1.30793000           1.33387000         
H                     4.15063000          -0.20011000           2.23112000         
H                     5.50149000           0.64781000           1.39101000         
H                     3.99843000           1.21354000          -1.36171000         
H                     4.42489000          -0.34493000          -2.11304000         
H                     5.65446000           0.57575000          -1.17013000         
O                     1.12130000          -0.55750000           1.26490000         
O                     1.44350000          -0.67870000          -1.60730000         
Si                    0.33340000           2.62100000           0.03170000         
Si                   -1.60920000           1.44360000           2.34720000         
Si                    0.04340000          -1.23760000           2.28280000         
Si                   -1.63660000           1.36760000          -2.31680000         
Si                   -3.57690000           0.30230000           0.00620000         
Si                   -1.85530000          -2.45540000           0.00150000         
Si                    0.12150000          -1.29240000          -2.35670000         
O                    -0.47110000           2.29070000           1.44060000         
O                    -0.94580000           0.00890000           2.90550000         
O                     1.86220000           1.78860000          -0.07410000         
O                    -0.59240000           2.13340000          -1.24230000         
O                    -2.86880000           1.06940000           1.30880000         
O                    -1.00270000          -2.27820000           1.44090000         
O                    -3.00140000           0.99870000          -1.41570000         
O                    -3.07860000          -1.29510000           0.01530000         
O                    -0.86830000          -2.16840000          -1.30230000         
O                    -0.88390000          -0.01300000          -2.88240000         
O                     0.76290000          -2.08350000           3.55560000         
O                    -2.08520000           2.47070000           3.58760000         
O                    -5.24390000           0.46800000           0.11930000         
O                    -2.49560000          -4.00550000          -0.15300000         
O                     0.92130000           4.19550000          -0.04630000         
O                    -2.05610000           2.39410000          -3.58030000         
O                     0.52950000          -2.25930000          -3.68010000         
H                    -1.78930000           2.24910000          -4.50040000         
H                     2.64410000           2.37010000          -0.13430000         
H                     0.43300000           5.01110000           0.13520000         
H                    -2.72970000           2.24860000           4.27530000         
H                     0.26860000          -2.47810000           4.28970000         
H                    -3.04970000          -4.43370000           0.51650000         
H                    -0.10650000          -2.84740000          -4.11600000         
H                    -5.84540000           0.48220000          -0.63970000         
