9

C                     6.38337000          -1.22741000          -1.43588000         
C                     6.66586000           0.07434000          -1.40244000         
C                     6.08222000           1.02378000          -2.40089000         
H                     5.71625000          -1.63528000          -2.18981000         
H                     6.81046000          -1.89673000          -0.69260000         
H                     7.31830000           0.46030000          -0.62362000         
H                     4.96828000           1.01143000          -2.35599000         
H                     6.40335000           0.74771000          -3.42500000         
H                     6.42234000           2.06017000          -2.18282000         
