9
Image 1
C                    -1.18925000           0.09136000          -0.44166000         
C                     0.09103000           0.28545000           0.35919000         
C                     1.25341000          -0.50750000           0.07295000         
H                    -0.08185000           0.74835000           1.34541000         
H                    -1.83677000          -0.62105000           0.08057000         
H                    -1.75075000           1.02401000          -0.55610000         
H                    -0.95516000          -0.32054000          -1.42621000         
H                     0.79851000           1.00689000          -0.21682000         
H                     1.97813000          -0.28162000           0.88654000         
