9
Image 121
C                    -0.84552000           0.42971000          -0.03735000         
C                     0.02176000          -0.66434000           0.45397000         
C                     0.82390000           0.22817000          -0.41126000         
H                     0.26465000          -0.68484000           1.51426000         
H                    -1.54392000           0.23589000          -0.84513000         
H                    -1.07117000           1.28481000           0.59088000         
H                    -0.19202000          -1.66030000           0.07179000         
H                     1.04795000          -0.05295000          -1.43487000         
H                     1.49292000           0.95423000           0.03926000         
