9
Image 1
C                    -1.25985000           0.17626000          -0.01093000         
C                     0.12338000          -0.30857000           0.31530000         
C                     1.24218000           0.10062000          -0.28231000         
H                     0.19173000          -1.06586000           1.09704000         
H                    -1.78898000           0.50952000           0.89010000         
H                    -1.23711000           1.00774000          -0.72168000         
H                    -1.86525000          -0.62771000          -0.44944000         
H                     1.22616000           0.85138000          -1.06916000         
H                     2.21474000          -0.29782000          -0.00947000         
