9
Image 121
C                    -0.83454000          -0.43728000          -0.11561000         
C                     0.00603000           0.57256000           0.56569000         
C                     0.82848000          -0.12989000          -0.44364000         
H                     0.25079000           0.40891000           1.61304000         
H                    -1.53946000          -0.11957000          -0.87718000         
H                    -0.23371000           1.61516000           0.36767000         
H                    -1.03701000          -1.39655000           0.34870000         
H                     1.04296000           0.33563000          -1.39983000         
H                     1.51667000          -0.90780000          -0.12900000         
