9
Image 1
C                    -1.23539000          -0.38389000          -0.03906000         
C                     0.04329000          -0.12078000          -0.08359000         
C                     1.32312000           0.14173000          -0.12971000         
H                    -0.58291000           2.21310000           1.53299000         
H                    -1.93733000           0.30207000           0.42797000         
H                    -1.15609000           2.59564000           1.81210000         
H                    -1.64075000          -1.29753000          -0.46674000         
H                     1.76041000           0.68641000          -0.96299000         
H                     1.99677000          -0.17816000           0.66154000         
