9
Image 108
C                    -1.25460000          -0.16755000          -0.12633000         
C                     0.10490000           0.17830000           0.40847000         
C                     1.25374000           0.01321000          -0.24664000         
H                     0.12894000           0.59836000           1.41460000         
H                    -1.76355000          -0.89167000           0.52226000         
H                    -1.89983000           0.71903000          -0.17076000         
H                    -1.19411000          -0.59465000          -1.13178000         
H                     1.28193000          -0.40123000          -1.25184000         
H                     2.20787000           0.28500000           0.19477000         
