9
Image 108
C                    -1.25898000           0.16179000          -0.08255000         
C                     0.11302000          -0.25082000           0.36603000         
C                     1.25084000           0.06096000          -0.25399000         
H                     0.15676000          -0.85483000           1.27300000         
H                    -1.77454000           0.73754000           0.69638000         
H                    -1.21825000           0.77441000          -0.98811000         
H                    -1.88725000          -0.71351000          -0.29102000         
H                     1.25937000           0.66039000          -1.16151000         
H                     2.21511000          -0.26972000           0.12008000         
