47

C          5.55269       -6.76276        0.13203
C          4.69741       -6.87432        1.44417
C          4.61557       -5.58014        2.29264
H          5.21618       -7.57099        2.14147
H          3.70928       -7.34161        1.24361
C          3.94786       -4.43077        1.59211
H          5.65461       -5.26791        2.52772
H          4.11629       -5.81602        3.25611
C          6.50830       -7.97121        0.04780
H          7.17117       -8.01135        0.93834
H          7.16288       -7.89111       -0.84732
H          5.93689       -8.92299       -0.01455
C          4.73169       -6.76115       -1.19471
H          6.21050       -5.86748        0.19098
C          3.73519       -5.65040       -1.40977
H          4.15950       -7.71173       -1.25113
H          5.45321       -6.75813       -2.04309
C          3.78185       -4.84240       -2.48763
C          2.73986       -3.81316       -2.70540
C          2.94615       -3.64990        2.07698
C          2.40042       -2.57004        1.18815
C          2.41487       -3.84478        3.48457
H          1.63518       -3.10696        3.75680
H          3.24717       -3.71115        4.21012
H          1.98104       -4.85781        3.60908
O          2.88128       -2.44963        0.06789
C          1.27584       -1.63689        1.61264
C          0.78094       -0.67456        0.54592
H          1.63271       -1.04194        2.48080
H          0.40318       -2.24707        1.93027
S         -0.51864        0.50629        0.96438
C         -0.83208        1.10369       -0.73479
H          0.09958        1.50224       -1.19010
H         -1.55185        1.94554       -0.68873
H         -1.27655        0.29646       -1.35426
O          1.24245       -0.68725       -0.58706
C          2.70398       -3.04717       -3.80682
C          1.62588       -2.04690       -3.98056
C          1.51599       -1.31048       -5.08906
H          4.35333       -4.21289        0.61522
H          0.89379       -1.90515       -3.19025
H          2.21444       -1.41759       -5.91294
H          0.70768       -0.59025       -5.17867
H          1.96506       -3.69186       -1.95481
H          3.45708       -3.16590       -4.58320
H          2.92523       -5.54243       -0.69592
H          4.57101       -4.96044       -3.22728
47
	Energy:     220.4814770
C          5.56304       -6.78947       -0.54653
C          4.33925       -6.46753        0.40648
C          3.77065       -5.02648        0.79239
H          4.61780       -6.87136        1.41112
H          3.51326       -7.17059        0.20026
C          3.38523       -3.61878        0.10296
H          4.47490       -4.69017        1.58529
H          2.83650       -5.35620        1.28105
C          6.66722       -7.57070        0.20808
H          7.04420       -7.01216        1.08833
H          7.52666       -7.78935       -0.46336
H          6.26884       -8.54899        0.56751
C          5.18181       -7.71353       -1.77728
H          5.98663       -5.82120       -0.88849
C          3.91885       -7.24949       -2.40719
H          4.97478       -8.74823       -1.43185
H          6.01913       -7.75273       -2.50841
C          3.95020       -6.20812       -3.23478
C          2.86482       -5.31013       -2.89244
C          2.58011       -2.72018        1.09686
C          1.99787       -1.56045        0.63622
C          2.40096       -3.14036        2.55457
H          1.84105       -2.42858        3.18692
H          3.38858       -3.27093        3.03858
H          1.81769       -4.08131        2.62128
O          2.09217       -1.21417       -0.67285
C          1.21462       -0.63495        1.55660
C          0.62660        0.58578        0.89542
H          1.90247       -0.27709        2.35011
H          0.37891       -1.20251        2.01864
S         -1.12090        0.96993        1.15243
C         -1.51780        1.43477       -0.56134
H         -0.77686        2.15507       -0.96398
H         -2.49340        1.96572       -0.54872
H         -1.61180        0.53148       -1.19692
O          1.35182        1.38189        0.32210
C          3.37091       -4.24354       -2.28234
C          2.61512       -3.50949       -1.25078
C          2.56559       -2.02856       -1.68359
H          4.36090       -3.11848       -0.10128
H          1.58138       -3.90300       -1.12059
H          3.57661       -1.65172       -1.96003
H          1.91217       -1.93059       -2.57556
H          1.84687       -5.63031       -2.67124
H          4.42872       -3.98289       -2.36736
H          3.01142       -7.45835       -1.83826
H          4.90987       -5.85429       -3.60757
