47

C          5.55269       -6.76276        0.13203
C          4.69741       -6.87432        1.44417
C          4.61557       -5.58014        2.29264
H          5.21618       -7.57099        2.14147
H          3.70928       -7.34161        1.24361
C          3.94786       -4.43077        1.59211
H          5.65461       -5.26791        2.52772
H          4.11629       -5.81602        3.25611
C          6.50830       -7.97121        0.04780
H          7.17117       -8.01135        0.93834
H          7.16288       -7.89111       -0.84732
H          5.93689       -8.92299       -0.01455
C          4.73169       -6.76115       -1.19471
H          6.21050       -5.86748        0.19098
C          3.73519       -5.65040       -1.40977
H          4.15950       -7.71173       -1.25113
H          5.45321       -6.75813       -2.04309
C          3.78185       -4.84240       -2.48763
C          2.73986       -3.81316       -2.70540
C          2.94615       -3.64990        2.07698
C          2.40042       -2.57004        1.18815
C          2.41487       -3.84478        3.48457
H          1.63518       -3.10696        3.75680
H          3.24717       -3.71115        4.21012
H          1.98104       -4.85781        3.60908
O          2.88128       -2.44963        0.06789
C          1.27584       -1.63689        1.61264
C          0.78094       -0.67456        0.54592
H          1.63271       -1.04194        2.48080
H          0.40318       -2.24707        1.93027
S         -0.51864        0.50629        0.96438
C         -0.83208        1.10369       -0.73479
H          0.09958        1.50224       -1.19010
H         -1.55185        1.94554       -0.68873
H         -1.27655        0.29646       -1.35426
O          1.24245       -0.68725       -0.58706
C          2.70398       -3.04717       -3.80682
C          1.62588       -2.04690       -3.98056
C          1.51599       -1.31048       -5.08906
H          4.35333       -4.21289        0.61522
H          0.89379       -1.90515       -3.19025
H          2.21444       -1.41759       -5.91294
H          0.70768       -0.59025       -5.17867
H          1.96506       -3.69186       -1.95481
H          3.45708       -3.16590       -4.58320
H          2.92523       -5.54243       -0.69592
H          4.57101       -4.96044       -3.22728
47
	Energy:      87.3549660
C          4.72275       -5.66531       -1.24399
C          3.67036       -5.67959       -0.08119
C          2.59666       -4.57184        0.15097
H          4.24707       -5.69594        0.87030
H          3.12830       -6.64946       -0.14361
C          3.14699       -3.14947        0.48484
H          2.06004       -4.93646        1.04938
H          1.82237       -4.54785       -0.63190
C          5.74308       -6.78308       -0.94982
H          6.22416       -6.61897        0.03970
H          6.55382       -6.78487       -1.70988
H          5.25485       -7.78095       -0.94385
C          4.15850       -5.90904       -2.67815
H          5.33755       -4.75252       -1.21845
C          3.24496       -4.83222       -3.28176
H          3.60103       -6.87062       -2.67632
H          5.01011       -6.02981       -3.38473
C          3.96157       -3.52189       -3.65176
C          2.97969       -2.38706       -3.98454
C          2.12956       -2.25844        1.22330
C          1.61364       -1.13422        0.61791
C          1.80544       -2.63862        2.65686
H          1.10324       -1.95151        3.16387
H          2.74189       -2.66082        3.25102
H          1.33675       -3.64157        2.69178
O          1.90311       -0.87738       -0.69901
C          0.76014       -0.14614        1.39194
C          0.42046        1.10837        0.63647
H          1.34523        0.18312        2.27829
H         -0.17256       -0.64017        1.73872
S         -1.28520        1.65764        0.51984
C         -1.47007        1.16375       -1.21421
H         -0.74960        1.71740       -1.85142
H         -2.49375        1.44059       -1.53968
H         -1.35804        0.06466       -1.31247
O          1.31175        1.81856        0.19363
C          2.83922       -1.29960       -2.89412
C          2.45344       -1.84990       -1.51620
C          3.65820       -2.40125       -0.75374
H          4.01754       -3.28119        1.16398
H          1.67990       -2.62459       -1.69556
H          4.28327       -1.53247       -0.44367
H          4.31462       -3.01872       -1.33909
H          1.98689       -2.79180       -4.28468
H          3.74099       -0.65473       -2.82806
H          2.34321       -4.68604       -2.67233
H          4.66009       -3.70409       -4.49307
