47

C          5.55269       -6.76276        0.13203
C          4.69741       -6.87432        1.44417
C          4.61557       -5.58014        2.29264
H          5.21618       -7.57099        2.14147
H          3.70928       -7.34161        1.24361
C          3.94786       -4.43077        1.59211
H          5.65461       -5.26791        2.52772
H          4.11629       -5.81602        3.25611
C          6.50830       -7.97121        0.04780
H          7.17117       -8.01135        0.93834
H          7.16288       -7.89111       -0.84732
H          5.93689       -8.92299       -0.01455
C          4.73169       -6.76115       -1.19471
H          6.21050       -5.86748        0.19098
C          3.73519       -5.65040       -1.40977
H          4.15950       -7.71173       -1.25113
H          5.45321       -6.75813       -2.04309
C          3.78185       -4.84240       -2.48763
C          2.73986       -3.81316       -2.70540
C          2.94615       -3.64990        2.07698
C          2.40042       -2.57004        1.18815
C          2.41487       -3.84478        3.48457
H          1.63518       -3.10696        3.75680
H          3.24717       -3.71115        4.21012
H          1.98104       -4.85781        3.60908
O          2.88128       -2.44963        0.06789
C          1.27584       -1.63689        1.61264
C          0.78094       -0.67456        0.54592
H          1.63271       -1.04194        2.48080
H          0.40318       -2.24707        1.93027
S         -0.51864        0.50629        0.96438
C         -0.83208        1.10369       -0.73479
H          0.09958        1.50224       -1.19010
H         -1.55185        1.94554       -0.68873
H         -1.27655        0.29646       -1.35426
O          1.24245       -0.68725       -0.58706
C          2.70398       -3.04717       -3.80682
C          1.62588       -2.04690       -3.98056
C          1.51599       -1.31048       -5.08906
H          4.35333       -4.21289        0.61522
H          0.89379       -1.90515       -3.19025
H          2.21444       -1.41759       -5.91294
H          0.70768       -0.59025       -5.17867
H          1.96506       -3.69186       -1.95481
H          3.45708       -3.16590       -4.58320
H          2.92523       -5.54243       -0.69592
H          4.57101       -4.96044       -3.22728
47
	Energy:     199.2724661
C          5.53237       -6.77926       -0.56821
C          5.15816       -5.94709        0.70119
C          5.14032       -4.36093        0.66477
H          5.99752       -6.10393        1.41561
H          4.31191       -6.42555        1.22595
C          4.12119       -3.25614        0.12577
H          6.15313       -4.03359        0.34233
H          5.10241       -4.17669        1.76694
C          6.43067       -7.96602       -0.14457
H          7.31239       -7.61861        0.43985
H          6.81178       -8.51856       -1.02655
H          5.85902       -8.66781        0.50474
C          4.30952       -7.36487       -1.38366
H          6.15731       -6.10835       -1.19872
C          3.00871       -6.63744       -1.09770
H          4.12219       -8.42100       -1.09744
H          4.58127       -7.36783       -2.46471
C          3.02318       -5.32761       -1.27356
C          2.01495       -4.25397       -0.83115
C          2.57658       -3.45514        0.41372
C          1.97112       -2.03664        0.64570
C          2.27993       -4.25304        1.70666
H          1.18352       -4.29698        1.87648
H          2.74822       -3.75385        2.58239
H          2.60998       -5.28935        1.64778
O          2.72404       -1.07434        0.73612
C          0.52790       -1.70697        0.91531
C          0.07721       -0.51610        0.09605
H          0.50405       -1.38097        1.98102
H         -0.16447       -2.56716        0.80947
S         -1.35096        0.43357        0.65824
C         -1.50149        1.48263       -0.82344
H         -0.56602        2.05331       -1.01224
H         -2.30457        2.22711       -0.65271
H         -1.78112        0.84940       -1.68906
O          0.76664       -0.09716       -0.83100
C          1.99407       -3.33162       -2.00211
C          3.09583       -2.59751       -2.25899
C          4.31766       -2.58143       -1.31154
H          4.51139       -2.45107        0.78979
H          3.09007       -1.96307       -3.13546
H          5.24079       -2.92002       -1.82275
H          4.44474       -1.49180       -1.13558
H          1.00642       -4.69589       -0.65671
H          1.11570       -3.27893       -2.64482
H          2.16973       -7.15079       -0.64680
H          3.95413       -4.97980       -1.70806
