47

C          5.55269       -6.76276        0.13203
C          4.69741       -6.87432        1.44417
C          4.61557       -5.58014        2.29264
H          5.21618       -7.57099        2.14147
H          3.70928       -7.34161        1.24361
C          3.94786       -4.43077        1.59211
H          5.65461       -5.26791        2.52772
H          4.11629       -5.81602        3.25611
C          6.50830       -7.97121        0.04780
H          7.17117       -8.01135        0.93834
H          7.16288       -7.89111       -0.84732
H          5.93689       -8.92299       -0.01455
C          4.73169       -6.76115       -1.19471
H          6.21050       -5.86748        0.19098
C          3.73519       -5.65040       -1.40977
H          4.15950       -7.71173       -1.25113
H          5.45321       -6.75813       -2.04309
C          3.78185       -4.84240       -2.48763
C          2.73986       -3.81316       -2.70540
C          2.94615       -3.64990        2.07698
C          2.40042       -2.57004        1.18815
C          2.41487       -3.84478        3.48457
H          1.63518       -3.10696        3.75680
H          3.24717       -3.71115        4.21012
H          1.98104       -4.85781        3.60908
O          2.88128       -2.44963        0.06789
C          1.27584       -1.63689        1.61264
C          0.78094       -0.67456        0.54592
H          1.63271       -1.04194        2.48080
H          0.40318       -2.24707        1.93027
S         -0.51864        0.50629        0.96438
C         -0.83208        1.10369       -0.73479
H          0.09958        1.50224       -1.19010
H         -1.55185        1.94554       -0.68873
H         -1.27655        0.29646       -1.35426
O          1.24245       -0.68725       -0.58706
C          2.70398       -3.04717       -3.80682
C          1.62588       -2.04690       -3.98056
C          1.51599       -1.31048       -5.08906
H          4.35333       -4.21289        0.61522
H          0.89379       -1.90515       -3.19025
H          2.21444       -1.41759       -5.91294
H          0.70768       -0.59025       -5.17867
H          1.96506       -3.69186       -1.95481
H          3.45708       -3.16590       -4.58320
H          2.92523       -5.54243       -0.69592
H          4.57101       -4.96044       -3.22728
47
	Energy:     118.8586419
C          5.42097       -6.31072        0.09799
C          4.70457       -6.65079        1.43365
C          4.68966       -5.47752        2.44310
H          5.24151       -7.45919        1.97793
H          3.68731       -7.04231        1.21841
C          4.28950       -4.18087        1.79908
H          5.71254       -5.31713        2.84740
H          4.04443       -5.77458        3.29455
C          6.24128       -7.52152       -0.38180
H          6.98265       -7.81873        0.39081
H          6.79703       -7.27166       -1.31067
H          5.57822       -8.39145       -0.58228
C          4.46552       -5.88164       -1.07000
H          6.17196       -5.51713        0.30032
C          3.17018       -5.11864       -0.81458
H          4.07895       -6.81227       -1.54076
H          5.08442       -5.37908       -1.84550
C          2.89732       -3.91774       -1.36840
C          1.48948       -3.31236       -1.36476
C          3.14845       -3.50773        2.01680
C          2.90519       -2.29622        1.17472
C          2.13455       -4.01854        3.01914
H          1.26202       -3.35244        3.14521
H          2.60926       -4.07462        4.02157
H          1.77713       -5.02674        2.72192
O          3.84681       -1.69215        0.67685
C          1.51754       -1.86788        0.81083
C          1.24095       -1.89957       -0.71704
H          1.36365       -0.84599        1.21288
H          0.76812       -2.53438        1.27465
S         -0.58202       -1.50609       -0.88660
C         -0.59686        0.20073       -0.24123
H          0.36663        0.71692       -0.42154
H         -0.83858        0.19238        0.84172
H         -1.36963        0.77434       -0.79243
O          2.04821       -0.94551       -1.39278
C          1.15335       -3.21193       -2.83052
C          1.24181       -2.03794       -3.47258
C          1.67279       -0.76991       -2.75819
H          4.97614       -3.80040        1.04898
H          1.00941       -1.98929       -4.53190
H          2.56021       -0.37873       -3.29688
H          0.87193       -0.00441       -2.83698
H          0.77529       -4.00955       -0.87343
H          0.89082       -4.10695       -3.38699
H          2.39100       -5.63164       -0.25855
H          3.67175       -3.41005       -1.93888
