47

C          5.55269       -6.76276        0.13203
C          4.69741       -6.87432        1.44417
C          4.61557       -5.58014        2.29264
H          5.21618       -7.57099        2.14147
H          3.70928       -7.34161        1.24361
C          3.94786       -4.43077        1.59211
H          5.65461       -5.26791        2.52772
H          4.11629       -5.81602        3.25611
C          6.50830       -7.97121        0.04780
H          7.17117       -8.01135        0.93834
H          7.16288       -7.89111       -0.84732
H          5.93689       -8.92299       -0.01455
C          4.73169       -6.76115       -1.19471
H          6.21050       -5.86748        0.19098
C          3.73519       -5.65040       -1.40977
H          4.15950       -7.71173       -1.25113
H          5.45321       -6.75813       -2.04309
C          3.78185       -4.84240       -2.48763
C          2.73986       -3.81316       -2.70540
C          2.94615       -3.64990        2.07698
C          2.40042       -2.57004        1.18815
C          2.41487       -3.84478        3.48457
H          1.63518       -3.10696        3.75680
H          3.24717       -3.71115        4.21012
H          1.98104       -4.85781        3.60908
O          2.88128       -2.44963        0.06789
C          1.27584       -1.63689        1.61264
C          0.78094       -0.67456        0.54592
H          1.63271       -1.04194        2.48080
H          0.40318       -2.24707        1.93027
S         -0.51864        0.50629        0.96438
C         -0.83208        1.10369       -0.73479
H          0.09958        1.50224       -1.19010
H         -1.55185        1.94554       -0.68873
H         -1.27655        0.29646       -1.35426
O          1.24245       -0.68725       -0.58706
C          2.70398       -3.04717       -3.80682
C          1.62588       -2.04690       -3.98056
C          1.51599       -1.31048       -5.08906
H          4.35333       -4.21289        0.61522
H          0.89379       -1.90515       -3.19025
H          2.21444       -1.41759       -5.91294
H          0.70768       -0.59025       -5.17867
H          1.96506       -3.69186       -1.95481
H          3.45708       -3.16590       -4.58320
H          2.92523       -5.54243       -0.69592
H          4.57101       -4.96044       -3.22728
47
	Energy:     151.0304200
C          5.81400       -6.65894        0.16605
C          4.63287       -6.74474        1.21328
C          4.09688       -5.40504        1.83841
H          5.01353       -7.27392        2.11541
H          3.81945       -7.39287        0.82457
C          3.62209       -4.31208        0.89824
H          4.93252       -4.95485        2.41773
H          3.30476       -5.67202        2.56662
C          6.76171       -7.85606        0.35862
H          7.15887       -7.87906        1.39576
H          7.62601       -7.78865       -0.33582
H          6.22410       -8.81139        0.16842
C          5.40334       -6.64967       -1.35319
H          6.39457       -5.74182        0.40719
C          4.21471       -5.79775       -1.55920
H          5.09328       -7.66790       -1.67763
H          6.26881       -6.33187       -1.97386
C          4.11555       -4.63468       -2.24202
C          2.84570       -3.84943       -1.98443
C          2.38695       -3.70594        0.83634
C          2.12775       -2.55813       -0.21361
C          1.31812       -4.08279        1.82899
H          0.40272       -3.47391        1.70177
H          1.68936       -3.90387        2.86030
H          1.05281       -5.15370        1.70887
O          3.12361       -2.66032       -1.23065
C          2.32826       -1.25131        0.61731
C          2.12203        0.05823       -0.10701
H          3.36737       -1.24978        1.01553
H          1.63523       -1.25890        1.48632
S          1.01251        1.30045        0.59870
C         -0.26931        1.24563       -0.69495
H          0.16830        1.46467       -1.69029
H         -1.00784        2.04505       -0.47651
H         -0.82758        0.28986       -0.67507
O          2.77652        0.32475       -1.09980
C          1.83414       -3.51833       -2.99820
C          0.74259       -2.93311       -2.46167
C          0.70549       -2.52271       -0.96776
H          4.40906       -3.96959        0.24168
H         -0.10715       -2.70628       -3.09789
H          0.41529       -1.47041       -1.07788
H         -0.11675       -3.00362       -0.40529
H          2.20713       -4.56613       -1.41169
H          1.92051       -3.78096       -4.04795
H          3.36542       -6.16943       -0.99727
H          4.95064       -4.21402       -2.79300
