60

C                    -2.91303000           1.31926000          -1.82866000         
C                    -3.96626000           2.38256000          -1.44802000         
H                    -3.28809000           0.74662000          -2.70236000         
H                    -1.99547000           1.83443000          -2.16644000         
H                    -4.96573000           1.92961000          -1.33507000         
H                    -4.01712000           3.06376000          -2.32411000         
C                    -5.94202000          -0.69593000          -0.72942000         
C                    -6.89699000           0.23420000          -0.62770000         
C                    -5.52546000          -1.54602000           0.43837000         
C                    -3.68591000           3.26196000          -0.20299000         
C                    -6.67270000          -2.41910000           0.93824000         
C                    -4.06304000           2.61079000           1.13562000         
Ga                   -2.30661000           0.00065000          -0.43566000         
H                    -5.44135000          -0.83539000          -1.68346000         
H                    -7.41029000           0.41296000           0.31137000         
H                    -7.16425000           0.83238000          -1.49252000         
H                    -4.69280000          -2.20926000           0.12031000         
H                    -5.16067000          -0.89460000           1.26245000         
H                    -4.34820000           4.15300000          -0.27714000         
H                    -2.64079000           3.62853000          -0.20157000         
H                    -6.32054000          -3.04795000           1.78218000         
H                    -7.51766000          -1.79350000           1.29554000         
H                    -7.03039000          -3.08285000           0.12153000         
H                    -3.47033000           1.71845000           1.38306000         
H                    -5.13498000           2.32273000           1.12922000         
H                    -3.90414000           3.33890000           1.95841000         
O                    -1.60900000          -1.49110000          -1.02230000         
O                    -1.26340000           0.85400000           0.66360000         
Si                    1.39370000           2.65740000          -1.22790000         
Si                    2.19470000          -0.38240000          -2.24610000         
Si                   -0.28860000          -2.38260000          -1.44280000         
Si                    2.54790000           1.87280000           1.62120000         
Si                    3.70520000          -0.95550000           0.58190000         
Si                    1.03450000          -2.52340000           1.43530000         
Si                   -0.35960000           0.41250000           2.01420000         
O                     1.68160000           1.18240000          -1.95610000         
O                     0.88940000          -1.39930000          -2.14310000         
O                    -0.23300000           2.81700000          -0.81580000         
O                     2.34550000           2.71550000           0.17640000         
O                     3.27790000          -0.75120000          -1.01710000         
O                     0.45440000          -3.03040000          -0.05710000         
O                     3.48020000           0.50800000           1.38020000         
O                     2.64790000          -2.07260000           1.25960000         
O                     0.17750000          -1.16920000           1.89710000         
O                     1.00660000           1.38200000           2.07290000         
O                    -0.72770000          -3.61760000          -2.50520000         
O                     2.88130000          -0.56960000          -3.76990000         
O                     5.30480000          -1.45340000           0.67810000         
O                     0.85650000          -3.69580000           2.62750000         
O                     1.84890000           3.86160000          -2.31310000         
O                     3.30880000           2.80890000           2.79020000         
O                    -1.31420000           0.58120000           3.39770000         
H                     3.10710000           3.73860000           2.97100000         
H                    -0.69670000           2.17470000          -0.20450000         
H                     1.72420000           4.80960000          -2.15980000         
H                     3.64700000          -0.07310000          -4.09490000         
H                    -0.08700000          -4.17630000          -2.97090000         
H                     1.16180000          -4.61160000           2.55040000         
H                    -1.06430000           0.23090000           4.26690000         
H                     5.87860000          -1.31420000           1.44580000         
