60

C                    -2.27694000           1.00656000          -2.40343000         
C                    -3.59738000           1.71356000          -2.65341000         
H                    -2.14444000           0.21962000          -3.17567000         
H                    -1.44683000           1.72133000          -2.52969000         
H                    -3.58843000           2.16362000          -3.66866000         
H                    -3.74892000           2.52103000          -1.91008000         
C                    -5.94921000           0.31548000           0.06239000         
C                    -6.01198000           1.77417000           0.44549000         
C                    -5.95928000          -0.67861000           0.96201000         
C                    -4.74373000           2.34747000           1.10657000         
C                    -5.92700000          -2.11136000           0.52722000         
C                    -4.36076000           1.71610000           2.44139000         
Ga                   -2.21619000           0.05853000          -0.61123000         
H                    -5.93753000           0.06469000          -0.99447000         
H                    -6.90047000           1.94775000           1.09113000         
H                    -6.16002000           2.35359000          -0.49127000         
H                    -4.43394000           0.98798000          -2.59744000         
H                    -6.01142000          -0.46296000           2.02375000         
H                    -4.92129000           3.43110000           1.28190000         
H                    -3.88322000           2.26351000           0.41509000         
H                    -5.95653000          -2.77445000           1.41627000         
H                    -6.80732000          -2.33228000          -0.11347000         
H                    -4.99618000          -2.31472000          -0.04381000         
H                    -4.06105000           0.65730000           2.31108000         
H                    -5.20185000           1.79153000           3.16136000         
H                    -3.48447000           2.25527000           2.85962000         
O                    -1.60900000          -1.49110000          -1.02230000         
O                    -1.26340000           0.85400000           0.66360000         
Si                    1.39370000           2.65740000          -1.22790000         
Si                    2.19470000          -0.38240000          -2.24610000         
Si                   -0.28860000          -2.38260000          -1.44280000         
Si                    2.54790000           1.87280000           1.62120000         
Si                    3.70520000          -0.95550000           0.58190000         
Si                    1.03450000          -2.52340000           1.43530000         
Si                   -0.35960000           0.41250000           2.01420000         
O                     1.68160000           1.18240000          -1.95610000         
O                     0.88940000          -1.39930000          -2.14310000         
O                    -0.23300000           2.81700000          -0.81580000         
O                     2.34550000           2.71550000           0.17640000         
O                     3.27790000          -0.75120000          -1.01710000         
O                     0.45440000          -3.03040000          -0.05710000         
O                     3.48020000           0.50800000           1.38020000         
O                     2.64790000          -2.07260000           1.25960000         
O                     0.17750000          -1.16920000           1.89710000         
O                     1.00660000           1.38200000           2.07290000         
O                    -0.72770000          -3.61760000          -2.50520000         
O                     2.88130000          -0.56960000          -3.76990000         
O                     5.30480000          -1.45340000           0.67810000         
O                     0.85650000          -3.69580000           2.62750000         
O                     1.84890000           3.86160000          -2.31310000         
O                     3.30880000           2.80890000           2.79020000         
O                    -1.31420000           0.58120000           3.39770000         
H                     3.10710000           3.73860000           2.97100000         
H                    -0.69670000           2.17470000          -0.20450000         
H                     1.72420000           4.80960000          -2.15980000         
H                     3.64700000          -0.07310000          -4.09490000         
H                    -0.08700000          -4.17630000          -2.97090000         
H                     1.16180000          -4.61160000           2.55040000         
H                    -1.06430000           0.23090000           4.26690000         
H                     5.87860000          -1.31420000           1.44580000         
