60

C                    -2.01617000           1.30903000          -3.60316000         
C                    -2.79388000           2.27697000          -3.12250000         
H                    -2.45849000           0.42266000          -4.04621000         
H                    -0.93600000           1.39604000          -3.54758000         
H                    -3.87417000           2.18604000          -3.17186000         
H                    -2.35291000           3.16070000          -2.67362000         
C                    -5.81540000           0.51496000           0.70879000         
C                    -6.83119000           1.61279000           0.39664000         
C                    -6.29352000          -0.78621000           1.36293000         
C                    -5.73210000           2.61920000           0.75381000         
C                    -7.09231000          -1.63554000           0.38167000         
C                    -5.08446000           1.52355000           1.60039000         
Ga                   -2.31714000          -0.04933000          -0.37979000         
H                    -5.21974000           0.33134000          -0.21532000         
H                    -7.60546000           1.64065000           1.19609000         
H                    -7.27718000           1.64948000          -0.62084000         
H                    -5.40868000          -1.37215000           1.69380000         
H                    -6.91528000          -0.56136000           2.25548000         
H                    -6.01028000           3.57797000           1.23961000         
H                    -5.09280000           2.78750000          -0.14744000         
H                    -7.40794000          -2.57892000           0.87607000         
H                    -7.99711000          -1.08914000           0.04100000         
H                    -6.46689000          -1.89305000          -0.50096000         
H                    -3.36652000          -0.68110000           0.64174000         
H                    -5.55955000           1.53590000           2.60927000         
H                    -3.97802000           1.49176000           1.67921000         
O                    -1.60900000          -1.49110000          -1.02230000         
O                    -1.26340000           0.85400000           0.66360000         
Si                    1.39370000           2.65740000          -1.22790000         
Si                    2.19470000          -0.38240000          -2.24610000         
Si                   -0.28860000          -2.38260000          -1.44280000         
Si                    2.54790000           1.87280000           1.62120000         
Si                    3.70520000          -0.95550000           0.58190000         
Si                    1.03450000          -2.52340000           1.43530000         
Si                   -0.35960000           0.41250000           2.01420000         
O                     1.68160000           1.18240000          -1.95610000         
O                     0.88940000          -1.39930000          -2.14310000         
O                    -0.23300000           2.81700000          -0.81580000         
O                     2.34550000           2.71550000           0.17640000         
O                     3.27790000          -0.75120000          -1.01710000         
O                     0.45440000          -3.03040000          -0.05710000         
O                     3.48020000           0.50800000           1.38020000         
O                     2.64790000          -2.07260000           1.25960000         
O                     0.17750000          -1.16920000           1.89710000         
O                     1.00660000           1.38200000           2.07290000         
O                    -0.72770000          -3.61760000          -2.50520000         
O                     2.88130000          -0.56960000          -3.76990000         
O                     5.30480000          -1.45340000           0.67810000         
O                     0.85650000          -3.69580000           2.62750000         
O                     1.84890000           3.86160000          -2.31310000         
O                     3.30880000           2.80890000           2.79020000         
O                    -1.31420000           0.58120000           3.39770000         
H                     3.10710000           3.73860000           2.97100000         
H                    -0.69670000           2.17470000          -0.20450000         
H                     1.72420000           4.80960000          -2.15980000         
H                     3.64700000          -0.07310000          -4.09490000         
H                    -0.08700000          -4.17630000          -2.97090000         
H                     1.16180000          -4.61160000           2.55040000         
H                    -1.06430000           0.23090000           4.26690000         
H                     5.87860000          -1.31420000           1.44580000         
