60

C                    -5.20899000           1.17467000          -2.19174000         
C                    -5.10747000           2.32286000          -2.86919000         
H                    -3.58158000           0.19205000          -0.34560000         
H                    -4.45861000           0.41715000          -2.38842000         
H                    -5.82457000           3.12572000          -2.74400000         
H                    -4.28698000           2.46822000          -3.56510000         
C                    -6.33484000           0.88754000          -1.20740000         
C                    -6.46151000           1.99380000          -0.11539000         
C                    -6.22987000          -0.57066000          -0.66975000         
C                    -5.21852000           2.39442000           0.72192000         
C                    -7.48831000          -1.04049000           0.05327000         
C                    -4.86273000           1.47403000           1.89064000         
Ga                   -2.11009000           0.10159000          -0.66430000         
H                    -7.26822000           0.91766000          -1.80449000         
H                    -7.32185000           1.80302000           0.55437000         
H                    -6.73051000           2.91624000          -0.67582000         
H                    -6.08118000          -1.25628000          -1.53258000         
H                    -5.38680000          -0.73510000           0.01209000         
H                    -5.46003000           3.37370000           1.19538000         
H                    -4.33824000           2.56491000           0.06523000         
H                    -7.35169000          -2.09925000           0.36344000         
H                    -7.68119000          -0.43493000           0.95686000         
H                    -8.35798000          -0.98862000          -0.63508000         
H                    -4.54178000           0.46993000           1.58448000         
H                    -5.72760000           1.37847000           2.57776000         
H                    -4.01757000           1.92706000           2.45457000         
O                    -1.60900000          -1.49110000          -1.02230000         
O                    -1.26340000           0.85400000           0.66360000         
Si                    1.39370000           2.65740000          -1.22790000         
Si                    2.19470000          -0.38240000          -2.24610000         
Si                   -0.28860000          -2.38260000          -1.44280000         
Si                    2.54790000           1.87280000           1.62120000         
Si                    3.70520000          -0.95550000           0.58190000         
Si                    1.03450000          -2.52340000           1.43530000         
Si                   -0.35960000           0.41250000           2.01420000         
O                     1.68160000           1.18240000          -1.95610000         
O                     0.88940000          -1.39930000          -2.14310000         
O                    -0.23300000           2.81700000          -0.81580000         
O                     2.34550000           2.71550000           0.17640000         
O                     3.27790000          -0.75120000          -1.01710000         
O                     0.45440000          -3.03040000          -0.05710000         
O                     3.48020000           0.50800000           1.38020000         
O                     2.64790000          -2.07260000           1.25960000         
O                     0.17750000          -1.16920000           1.89710000         
O                     1.00660000           1.38200000           2.07290000         
O                    -0.72770000          -3.61760000          -2.50520000         
O                     2.88130000          -0.56960000          -3.76990000         
O                     5.30480000          -1.45340000           0.67810000         
O                     0.85650000          -3.69580000           2.62750000         
O                     1.84890000           3.86160000          -2.31310000         
O                     3.30880000           2.80890000           2.79020000         
O                    -1.31420000           0.58120000           3.39770000         
H                     3.10710000           3.73860000           2.97100000         
H                    -0.69670000           2.17470000          -0.20450000         
H                     1.72420000           4.80960000          -2.15980000         
H                     3.64700000          -0.07310000          -4.09490000         
H                    -0.08700000          -4.17630000          -2.97090000         
H                     1.16180000          -4.61160000           2.55040000         
H                    -1.06430000           0.23090000           4.26690000         
H                     5.87860000          -1.31420000           1.44580000         
