9
0.0
C       -2.489035       0.168762       1.408923
C       -1.149739      -0.464986       1.584572
C       -0.033290      -0.023180       1.038114
H       -1.135944      -1.347525       2.212112
H       -2.893857       0.465580       2.376441
H       -2.425447       1.045775       0.769368
H       -3.185739      -0.542411       0.965178
H        0.913100      -0.513088       1.192409
H       -0.018638       0.852683       0.409583
9
-1.615209384908667e-05
C       -2.489023       0.168756       1.408924
C       -1.149752      -0.464989       1.584580
C       -0.033296      -0.023170       1.038109
H       -1.135950      -1.347515       2.212108
H       -2.893847       0.465574       2.376415
H       -2.425424       1.045748       0.769381
H       -3.185720      -0.542392       0.965188
H        0.913073      -0.513078       1.192407
H       -0.018650       0.852677       0.409588
