9
100.42609201214327
C       -2.528530       0.268552       1.403610
C       -1.224394      -0.386216       1.769787
C       -0.167068       0.032235       0.867735
H       -0.954592      -0.491204       2.815063
H       -2.885662       0.181439       0.400151
H       -3.036010       0.980115       2.029379
H       -1.776257      -1.419691       1.546688
H       -0.270530      -0.008968      -0.196115
H        0.818357       0.177621       1.279942
9
100.35583153966672
C       -2.528933       0.268747       1.403696
C       -1.224407      -0.386286       1.769643
C       -0.167011       0.032154       0.867787
H       -0.954589      -0.491151       2.814889
H       -2.886086       0.181572       0.400137
H       -3.036654       0.980035       2.029433
H       -1.774769      -1.419318       1.546500
H       -0.270466      -0.009066      -0.196030
H        0.818470       0.177424       1.280028
9
100.07826812929852
C       -2.530454       0.268975       1.404283
C       -1.224405      -0.387196       1.769102
C       -0.166980       0.031624       0.867908
H       -0.954791      -0.490934       2.814297
H       -2.887560       0.181832       0.400327
H       -3.038752       0.979254       2.030063
H       -1.769206      -1.417632       1.545659
H       -0.270503      -0.008987      -0.195804
H        0.818520       0.176724       1.280272
