9
0.0
C       -2.504416      -0.123219       1.421636
C       -1.051973      -0.099927       1.762323
C       -0.081458       0.116161       0.895330
H       -0.820057      -0.277334       2.805210
H       -2.660110       0.061802       0.361563
H       -3.036804       0.635844       1.994750
H       -2.934906      -1.091125       1.678364
H       -0.284200       0.295333      -0.148315
H        0.955312       0.123966       1.186049
9
-1.4288390048022848e-05
C       -2.504405      -0.123218       1.421637
C       -1.051982      -0.099928       1.762327
C       -0.081462       0.116161       0.895325
H       -0.820068      -0.277331       2.805197
H       -2.660085       0.061799       0.361586
H       -3.036788       0.635826       1.994734
H       -2.934898      -1.091105       1.678359
H       -0.284213       0.295331      -0.148300
H        0.955290       0.123965       1.186044
