9
72.75934825266631
C       -2.539148       0.144547       1.404161
C       -1.138951      -0.278130       1.734572
C       -0.126536       0.054000       0.913815
H       -0.880330      -0.368499       2.777164
H       -2.943159       0.057683       0.409569
H       -3.043950       0.803272       2.075629
H       -2.354572      -1.321306       1.521161
H       -0.235432       0.059560      -0.153420
H        0.887951       0.160762       1.276911
9
72.67334560062227
C       -2.539357       0.144423       1.404395
C       -1.138711      -0.277866       1.733920
C       -0.125874       0.053799       0.913865
H       -0.880120      -0.367926       2.776608
H       -2.943398       0.057628       0.409773
H       -3.044315       0.802609       2.076181
H       -2.353795      -1.320575       1.520907
H       -0.234739       0.059795      -0.153412
H        0.888565       0.160249       1.277021
