9
65.56585895602075
C       -2.304797       0.307311       1.299119
C       -1.235429      -0.532828       1.871316
C       -0.444511       0.129136       0.860723
H       -1.000166      -0.668144       2.908391
H       -2.686545       0.197091       0.303059
H       -2.731867       1.113710       1.887613
H       -1.798753      -1.589813       1.630828
H       -0.541672       0.026941      -0.199017
H        0.503998       0.423463       1.283868
9
65.4728150389983
C       -2.304778       0.307500       1.299110
C       -1.235551      -0.533070       1.871281
C       -0.444572       0.128967       0.860771
H       -1.000331      -0.668269       2.908402
H       -2.686325       0.197273       0.302956
H       -2.731782       1.114018       1.887438
H       -1.798062      -1.589826       1.631118
H       -0.541841       0.026808      -0.198960
H        0.503923       0.423299       1.283937
