48

Si                   -2.89548000           0.49858000          -1.07539000         
C                    -3.58604000           0.30381000          -2.79991000         
H                    -3.14767000           1.07880000          -3.46230000         
H                    -4.68868000           0.42109000          -2.77595000         
H                    -3.32816000          -0.70167000          -3.19092000         
C                    -3.66300000          -0.83573000          -0.00713000         
H                    -3.30792000          -0.77653000           1.03815000         
H                    -3.39840000          -1.82968000          -0.42223000         
H                    -4.76561000          -0.71672000          -0.01705000         
C                    -3.34939000           2.22503000          -0.50160000         
O                    -1.63457000           0.87209000           1.77942000         
H                    -2.96757000           2.43652000           0.51362000         
H                    -4.45269000           2.33473000          -0.49938000         
H                    -2.91177000           2.96458000          -1.20374000         
C                    -0.59723000           0.23657000           1.79985000         
C                     0.55456000           0.65552000           2.73044000         
H                     0.20697000           1.46093000           3.41422000         
H                     0.85368000          -0.15780000           3.41626000         
C                    -0.21067000          -0.73399000           0.75409000         
C                    -0.38786000          -0.56756000          -0.61246000         
O                     0.55525000          -1.19242000          -1.42360000         
C                     0.89042000          -1.67955000           1.17684000         
C                     2.40452000           0.27748000           0.75088000         
C                     1.80296000           1.17831000           1.89723000         
C                     3.42266000           0.96739000          -0.13992000         
O                    -1.20292000           0.34709000          -1.19650000         
C                     1.32028000           2.50621000           1.23591000         
C                     2.83671000           2.24172000          -0.74018000         
H                     3.79927000           0.32285000          -0.95510000         
H                     4.30447000           1.23275000           0.48269000         
C                     2.39070000           3.18314000           0.37940000         
H                     0.99024000           3.22271000           2.01970000         
H                     0.45007000           2.30683000           0.57140000         
H                     1.97208000           1.98470000          -1.39308000         
H                     3.60520000           2.74770000          -1.36265000         
H                     3.25939000           3.46536000           1.01261000         
H                     1.96798000           4.10877000          -0.06876000         
C                     0.77815000          -3.08599000           0.53056000         
C                     1.95729000          -0.98981000           0.45344000         
H                     1.08771000          -1.82017000           2.25307000         
C                     1.83987000          -1.57802000          -0.94031000         
C                     1.79038000          -3.05112000          -0.61083000         
H                     2.79648000          -3.32645000          -0.21595000         
H                     1.54251000          -3.73530000          -1.45004000         
H                    -0.25706000          -3.23011000           0.14750000         
H                     1.01746000          -3.92976000           1.21372000         
H                     2.63739000          -1.32510000          -1.66424000         
H                     2.62272000           1.43022000           2.60441000         
