48

Si                   -3.32835605           1.13130221          -0.07825374         
C                    -3.83119054           1.98924906          -1.69481869         
H                    -3.25335335           2.89164413          -1.86893637         
H                    -4.87848068           2.26811882          -1.66651100         
H                    -3.68378928           1.33559977          -2.54842390         
C                    -4.24011309          -0.50913172           0.21557473         
H                    -4.00527328          -1.22122345          -0.57172743         
H                    -5.31714563          -0.37855420           0.23885968         
H                    -3.93745520          -0.95480529           1.15909601         
C                    -3.41914447           2.29879022           1.42275621         
O                    -0.94952686          -2.08061661          -1.54019474         
H                    -2.88559149           3.22759577           1.23658624         
H                    -2.97258502           1.83318887           2.29671812         
H                    -4.44482306           2.55363366           1.66871599         
C                    -0.02907668          -1.78408739          -0.82967168         
C                     1.00832799          -2.70955726          -0.24396208         
H                     0.66826268          -2.99798948           0.75354995         
H                     1.13456823          -3.60944029          -0.84465787         
C                     0.32456176          -0.37587540          -0.36425869         
C                    -0.89977782           0.11676372           0.36491405         
O                    -1.71605822           0.77845717          -0.42159079         
C                     0.96493998           0.54778468          -1.45408251         
C                     1.72005721          -0.47503400           0.34328199         
C                     2.26175483          -1.83550467          -0.15366128         
C                     1.76416758          -0.27783135           1.85249389         
O                    -1.14561868          -0.14553662           1.51570745         
C                     3.41572933          -2.42351816           0.65809150         
C                     3.06908254          -0.76411075           2.46962819         
H                     0.93363660          -0.82507470           2.30075610         
H                     1.61055684           0.78056592           2.07158606         
C                     3.25060483          -2.24422558           2.16113845         
H                     4.33753757          -1.92154759           0.35411623         
H                     3.51879141          -3.48197504           0.40863112         
H                     3.04152831          -0.60014989           3.54806645         
H                     3.90933739          -0.19875022           2.06097584         
H                     4.13275530          -2.63647561           2.67061703         
H                     2.38261865          -2.80082690           2.51972238         
C                     0.60359372           2.00006455          -1.77172261         
C                     2.13302127           0.68747580          -0.51505260         
H                     1.15636114          -0.01876314          -2.36774000         
C                     2.64563084           1.90432518          -0.50912487         
C                     1.95652998           2.72922581          -1.57576696         
H                     2.53520015           2.73484437          -2.50405701         
H                     1.82318629           3.76302741          -1.25791162         
H                    -0.12215578           2.38396617          -1.05660199         
H                     0.19905234           2.12605319          -2.77386556         
H                     3.40624240           2.30803206           0.13438481         
H                     2.62731918          -1.69530615          -1.17818190         
