48

Si                    3.70445000           0.16093000           0.08790000         
C                     3.80796000           1.83241000          -0.73886000         
H                     4.87796000           2.11446000          -0.81769000         
H                     3.30310000           2.60181000          -0.12058000         
H                     3.39351000           1.78107000          -1.76625000         
C                     4.54185000           0.34136000           1.74648000         
H                     5.56136000           0.75501000           1.60348000         
H                     4.61231000          -0.65234000           2.23457000         
H                     3.95022000           1.02733000           2.38657000         
C                     4.73357000          -0.99236000          -0.95921000         
O                     2.21558000          -0.64655000           0.36211000         
H                     5.75206000          -0.57168000          -1.08649000         
H                     4.25522000          -1.11154000          -1.95310000         
H                     4.80139000          -1.98154000          -0.46164000         
C                     0.85612000          -0.70150000           0.27090000         
C                     0.17884000          -1.96431000           0.73679000         
H                     0.32122000          -2.73068000          -0.05327000         
H                     0.56771000          -2.34986000           1.70415000         
C                    -0.06445000           0.17963000          -0.20612000         
C                     0.04078000           1.55091000          -0.78455000         
O                     1.11422000           2.07489000          -0.96631000         
C                    -3.35410000           0.75588000           1.03169000         
C                    -1.42718000          -0.45438000          -0.17961000         
C                    -1.26557000          -1.50101000           0.92467000         
C                    -1.68565000          -1.13752000          -1.55896000         
O                    -1.09152000           2.25288000          -1.10052000         
C                    -2.35519000          -2.59391000           0.93756000         
C                    -2.86678000          -2.11316000          -1.48392000         
H                    -0.79886000          -1.73277000          -1.87130000         
H                    -1.84772000          -0.38184000          -2.35675000         
C                    -2.56188000          -3.21209000          -0.45088000         
H                    -3.32111000          -2.13891000           1.23498000         
H                    -2.10998000          -3.37561000           1.68777000         
H                    -3.01762000          -2.58266000          -2.47968000         
H                    -3.79708000          -1.56943000          -1.20961000         
H                    -3.40558000          -3.93388000          -0.41034000         
H                    -1.65259000          -3.77112000          -0.75927000         
C                    -4.10177000           2.03727000           0.86806000         
C                    -2.42810000           0.64460000           0.07836000         
H                    -3.58257000           0.01073000           1.77777000         
C                    -2.39287000           1.85542000          -0.79866000         
C                    -3.09252000           2.87476000           0.08920000         
H                    -3.49092000           3.77601000          -0.42251000         
H                    -2.34050000           3.21677000           0.84026000         
H                    -4.35960000           2.53916000           1.82489000         
H                    -5.01585000           1.82753000           0.27071000         
H                    -2.97015000           1.65161000          -1.72631000         
H                    -1.26884000          -0.96901000           1.90654000         
