52

C                    -4.13630000          -0.20504000          -0.70673000         
C                    -5.94412000           0.57331000          -2.41606000         
C                    -4.60987000          -0.05879000          -2.12573000         
C                    -3.87734000          -0.55027000          -3.13332000         
H                    -5.80540000           1.88649000           1.58275000         
H                    -4.91632000           0.15340000          -0.00552000         
H                    -4.00049000          -1.28820000          -0.49413000         
H                    -6.60293000          -0.16777000          -2.91700000         
H                    -6.44985000           0.90508000          -1.48518000         
H                    -5.81143000           1.45316000          -3.07675000         
H                    -4.22151000          -0.47243000          -4.15941000         
H                    -2.93819000          -1.05120000          -2.93651000         
C                    -5.14289000           2.73373000           1.44031000         
C                    -4.28468000           3.08067000           2.39644000         
Ga                   -2.45618000           0.72252000          -0.04237000         
H                    -5.18268000           3.29271000           0.51102000         
H                    -3.62024000           3.92666000           2.25390000         
H                    -4.24339000           2.51855000           3.32366000         
O                    -1.14790000           1.15140000          -1.18670000         
O                    -2.04040000          -0.41110000           1.21590000         
Si                    1.54280000           2.74700000           0.75040000         
Si                    2.79860000           1.16330000          -1.75440000         
Si                   -0.28700000           0.25310000          -2.31070000         
Si                    1.79670000          -0.05310000           2.46900000         
Si                    3.24460000          -1.52880000          -0.05170000         
Si                    0.32230000          -2.62600000          -0.87850000         
Si                   -1.03230000          -1.54290000           1.84810000         
O                     2.56620000           2.25830000          -0.51010000         
O                     1.29470000           0.78980000          -2.38410000         
O                     0.03550000           3.14120000           0.11980000         
O                     1.51640000           1.45570000           1.81360000         
O                     3.47680000          -0.23400000          -1.09990000         
O                    -0.24440000          -1.34630000          -1.79400000         
O                     2.81010000          -0.90160000           1.43940000         
O                     1.97600000          -2.44650000          -0.64090000         
O                    -0.44800000          -2.53750000           0.60260000         
O                     0.34520000          -0.87660000           2.55380000         
O                    -1.06320000           0.36830000          -3.80780000         
O                     3.75310000           1.76220000          -3.00030000         
O                     4.60820000          -2.50350000           0.06110000         
O                     0.00630000          -4.06470000          -1.69140000         
O                     2.16560000           4.07210000           1.58700000         
O                     2.54690000           0.05010000           3.97300000         
O                    -1.86960000          -2.46930000           2.98680000         
H                     2.43200000           0.79470000           4.58240000         
H                    -0.45350000           2.53880000          -0.50630000         
H                     1.97700000           4.98610000           1.32510000         
H                     4.71270000           1.88160000          -2.95200000         
H                    -0.65150000           0.12820000          -4.65220000         
H                     0.56480000          -4.85380000          -1.62640000         
H                    -1.42480000          -3.07320000           3.60120000         
H                     5.33240000          -2.35760000           0.68770000         
