12
0.0
C        1.407543       1.487208      -2.163883
C        1.160898       0.687532      -0.879428
C        1.161682      -0.790466      -1.119757
O        1.288136       2.868621      -1.971821
O       -0.080046       3.191311      -1.705211
O        1.683036      -1.607164      -0.416482
H       -0.053950       4.155599      -1.662638
H        2.438727       1.374477      -2.507582
H        0.719382       1.156137      -2.952844
H        0.605204      -1.089821      -2.030809
H        0.165195       0.957652      -0.511586
H        1.893082       0.948614      -0.113839
12
-3.3716083635226823e-05
C        1.407567       1.487206      -2.163883
C        1.160917       0.687533      -0.879442
C        1.161648      -0.790457      -1.119750
O        1.288136       2.868641      -1.971814
O       -0.080064       3.191305      -1.705190
O        1.683016      -1.607144      -0.416441
H       -0.053986       4.155570      -1.662629
H        2.438755       1.374503      -2.507583
H        0.719406       1.156135      -2.952855
H        0.605161      -1.089860      -2.030829
H        0.165229       0.957680      -0.511600
H        1.893104       0.948588      -0.113865
