12
118.12412015205518
C        1.185258       1.499229      -2.204061
C        0.951258       0.722033      -0.924806
C        1.188331      -0.756562      -1.089114
O        1.864539       2.596541      -2.014265
O       -0.026662       2.998018      -1.792082
O        1.745410      -1.455041      -0.295049
H        0.162047       3.849857      -1.404055
H        2.368277       1.777938      -3.079111
H        0.614574       1.192006      -3.075337
H        0.769596      -1.173314      -2.027286
H       -0.098507       0.856574      -0.650683
H        1.574666       1.118187      -0.122334
12
118.04767739976523
C        1.185271       1.499227      -2.204030
C        0.951366       0.722016      -0.924872
C        1.188149      -0.756640      -1.089217
O        1.864457       2.596296      -2.014619
O       -0.026999       2.998667      -1.791836
O        1.745270      -1.455138      -0.295212
H        0.161645       3.850447      -1.403663
H        2.368649       1.777601      -3.079191
H        0.614569       1.191835      -3.075245
H        0.769349      -1.173331      -2.027376
H       -0.098370       0.856694      -0.650669
H        1.574824       1.118135      -0.122413
12
117.74503667769386
C        1.185302       1.499259      -2.203893
C        0.951771       0.721980      -0.925118
C        1.187404      -0.756922      -1.089608
O        1.864243       2.595286      -2.016098
O       -0.028326       3.001127      -1.790868
O        1.744699      -1.455505      -0.295851
H        0.160061       3.852658      -1.402078
H        2.370173       1.776403      -3.079565
H        0.614518       1.191204      -3.074864
H        0.768338      -1.173363      -2.027716
H       -0.097851       0.857192      -0.650597
H        1.575428       1.117958      -0.122710
