12
27.111287100935442
C        1.140941       1.566229      -2.166971
C        0.904982       0.776558      -0.886637
C        1.149063      -0.699604      -1.054721
O        2.047105       2.573663      -2.135344
O        0.022711       2.755363      -1.814874
O        1.712253      -1.405631      -0.269328
H        0.233456       3.575654      -1.373994
H        2.356805       2.043632      -3.070871
H        0.548494       1.279542      -3.028896
H        0.730625      -1.111267      -1.996740
H       -0.144165       0.904268      -0.614631
H        1.531157       1.172994      -0.085921
12
25.903594133507795
C        1.140113       1.566409      -2.168545
C        0.906545       0.774577      -0.888348
C        1.146181      -0.701928      -1.059595
O        2.046469       2.573252      -2.142720
O        0.020169       2.752697      -1.814299
O        1.710798      -1.410425      -0.277465
H        0.233580       3.572824      -1.373596
H        2.359045       2.042352      -3.069910
H        0.544626       1.279932      -3.028280
H        0.724033      -1.110921      -2.001062
H       -0.141520       0.904438      -0.612701
H        1.535938       1.168191      -0.088740
