54

C                     2.88635000          -4.39415000           0.97203000         
C                     2.34679000          -4.54743000          -0.23546000         
H                     2.25091000          -4.31195000           1.84786000         
H                     3.96426000          -4.34414000           1.08682000         
H                     1.26860000          -4.59027000          -0.35068000         
H                     2.98195000          -4.62269000          -1.11207000         
C                     6.38337000          -1.22741000          -1.43588000         
C                     6.66586000           0.07434000          -1.40244000         
C                     3.90938000          -0.21854000           0.46807000         
C                     6.08222000           1.02378000          -2.40089000         
Ga                    2.16359000          -1.02986000          -0.03216000         
H                     5.71625000          -1.63528000          -2.18981000         
H                     6.81046000          -1.89673000          -0.69260000         
H                     7.31830000           0.46030000          -0.62362000         
H                     3.76424000           0.31033000           1.43905000         
H                     4.66015000          -1.01237000           0.62619000         
H                     4.23455000           0.52253000          -0.27642000         
H                     4.96828000           1.01143000          -2.35599000         
H                     6.40335000           0.74771000          -3.42500000         
H                     6.42234000           2.06017000          -2.18282000         
O                     1.12130000          -0.55750000           1.26490000         
O                     1.44350000          -0.67870000          -1.60730000         
Si                    0.33340000           2.62100000           0.03170000         
Si                   -1.60920000           1.44360000           2.34720000         
Si                    0.04340000          -1.23760000           2.28280000         
Si                   -1.63660000           1.36760000          -2.31680000         
Si                   -3.57690000           0.30230000           0.00620000         
Si                   -1.85530000          -2.45540000           0.00150000         
Si                    0.12150000          -1.29240000          -2.35670000         
O                    -0.47110000           2.29070000           1.44060000         
O                    -0.94580000           0.00890000           2.90550000         
O                     1.86220000           1.78860000          -0.07410000         
O                    -0.59240000           2.13340000          -1.24230000         
O                    -2.86880000           1.06940000           1.30880000         
O                    -1.00270000          -2.27820000           1.44090000         
O                    -3.00140000           0.99870000          -1.41570000         
O                    -3.07860000          -1.29510000           0.01530000         
O                    -0.86830000          -2.16840000          -1.30230000         
O                    -0.88390000          -0.01300000          -2.88240000         
O                     0.76290000          -2.08350000           3.55560000         
O                    -2.08520000           2.47070000           3.58760000         
O                    -5.24390000           0.46800000           0.11930000         
O                    -2.49560000          -4.00550000          -0.15300000         
O                     0.92130000           4.19550000          -0.04630000         
O                    -2.05610000           2.39410000          -3.58030000         
O                     0.52950000          -2.25930000          -3.68010000         
H                    -1.78930000           2.24910000          -4.50040000         
H                     2.64410000           2.37010000          -0.13430000         
H                     0.43300000           5.01110000           0.13520000         
H                    -2.72970000           2.24860000           4.27530000         
H                     0.26860000          -2.47810000           4.28970000         
H                    -3.04970000          -4.43370000           0.51650000         
H                    -0.10650000          -2.84740000          -4.11600000         
H                    -5.84540000           0.48220000          -0.63970000         
