12

C                     1.01392000           0.25323000          -2.53935000         
C                     0.67600000           0.36648000          -1.05458000         
C                     1.52400000           1.40586000          -0.36335000         
O                     1.43584000           2.72344000          -0.66476000         
O                     0.57798000           3.18218000          -1.51826000         
O                     2.29687000           1.05458000           0.51406000         
H                     1.11857000           3.71729000          -2.15287000         
H                     2.08032000          -0.03132000          -2.66720000         
H                     0.82741000           1.20729000          -3.07242000         
H                     0.38074000          -0.53277000          -3.00256000         
H                    -0.39728000           0.62175000          -0.92502000         
H                     0.85483000          -0.62801000          -0.58947000         
