12

C                     1.46178000           1.35815000          -2.17804000         
C                     1.27532000           0.81619000          -0.74479000         
C                     1.82186000          -0.29654000          -0.33866000         
O                     0.52372000           2.35756000          -2.50546000         
O                     0.56090000           3.25377000          -1.54133000         
O                     2.34080000          -1.30450000           0.03987000         
H                     0.92892000           4.06271000          -1.96766000         
H                     2.49801000           1.68858000          -2.20871000         
H                     1.58147000           0.73776000          -3.10438000         
H                    -0.43402000          -0.45057000          -2.01360000         
H                    -0.84829000          -0.22719000          -1.48325000         
H                     0.67871000           1.34409000           0.01021000         
