12

C                     1.09101000           0.80817000          -2.62972000         
C                     0.89082000           0.75169000          -0.00708000         
C                     1.37863000           0.16040000          -1.29887000         
O                     0.30123000           1.96476000          -2.48739000         
O                     1.13041000           2.95984000          -2.23069000         
O                     2.02258000          -0.87768000          -1.27432000         
H                     0.70226000           3.75326000          -2.64075000         
H                     1.31965000           1.76601000           0.13016000         
H                     2.04207000           1.02500000          -3.17015000         
H                     0.53007000           0.08660000          -3.26039000         
H                    -0.21711000           0.81994000          -0.02154000         
H                     1.19759000           0.12200000           0.85494000         
