12

C                     1.45697000           1.17066000          -1.68980000         
C                     1.22555000           0.67757000          -0.28900000         
C                     1.80705000          -0.40705000           0.16174000         
O                     0.52485000           2.17043000          -2.01813000         
O                     0.83879000           3.23722000          -1.32513000         
O                     2.32481000          -1.40169000           0.56632000         
H                     0.95007000           3.95699000          -1.99239000         
H                     2.50260000           1.52952000          -1.84400000         
H                    -0.31097000           0.63699000          -4.02422000         
H                     1.29379000           0.30709000          -2.36749000         
H                    -0.70234000           0.30133000          -3.53873000         
H                     0.47804000           1.16095000           0.32501000         
