12

C                     2.09848000           1.06586000          -2.08044000         
C                    -0.16996000           0.45584000          -0.89397000         
C                     1.27273000           0.16699000          -1.19565000         
O                     1.34828000           2.14378000          -2.58731000         
O                     1.47613000           3.13498000          -1.72410000         
O                     1.79372000          -0.82732000          -0.71688000         
H                     0.70576000           3.72891000          -1.91089000         
H                     3.00516000           1.41442000          -1.53161000         
H                    -0.75296000           0.47767000          -1.83812000         
H                     2.46759000           0.47221000          -2.94298000         
H                    -0.59575000          -0.32910000          -0.23234000         
H                    -0.25997000           1.43578000          -0.38150000         
