12

C                     1.56501000           1.12226000          -3.49863000         
C                     0.04610000           1.29741000           0.05265000         
C                     1.41989000           0.79255000          -0.28595000         
O                     1.52356000           1.89920000          -2.33099000         
O                     2.07431000           1.16941000          -1.40999000         
O                     1.96477000           0.01104000           0.47727000         
H                    -0.32547000           2.02455000          -0.69784000         
H                     2.60972000           0.82163000          -3.73867000         
H                     1.19180000           1.72879000          -4.34900000         
H                     0.90771000           0.23046000          -3.39794000         
H                    -0.66104000           0.44313000           0.10045000         
H                     0.07281000           1.79956000           1.04282000         
