12

C                     2.48258000           1.08477000          -2.83764000         
C                    -0.56629000           0.56843000          -0.39937000         
C                     0.60421000           0.08045000          -0.06777000         
O                    -0.72773000           1.86533000          -0.75481000         
O                     0.26175000           2.70009000          -0.80210000         
O                     1.67109000          -0.36731000           0.23380000         
H                     0.16376000           3.15365000          -1.67759000         
H                     3.47601000           0.83446000          -3.26200000         
H                     1.98993000           1.85319000          -3.46776000         
H                     1.85207000           0.17235000          -2.80887000         
H                    -1.43079000          -0.08525000          -0.38223000         
H                     2.61260000           1.47984000          -1.80945000         
