12

C                     1.04414000           0.31938000          -3.32575000         
C                     0.65262000           1.41803000           0.47121000         
C                     1.51240000           0.48270000           0.15337000         
O                     0.55628000           2.57215000          -0.23146000         
O                     1.30634000           2.82212000          -1.25735000         
O                     2.29649000          -0.37407000          -0.13602000         
H                     0.84060000           3.55555000          -1.73324000         
H                     2.02056000           0.45312000          -2.81678000         
H                     0.97288000           1.03148000          -4.17284000         
H                     0.96467000          -0.72048000          -3.70267000         
H                     0.22016000           0.51525000          -2.60905000         
H                     0.00207000           1.26478000           1.32477000         
