12

C                     1.40457000           0.47660000          -2.41666000         
C                     0.84582000          -0.03816000          -1.12952000         
C                     1.66472000          -0.68191000          -0.35415000         
O                    -0.03980000           2.65719000          -1.24374000         
O                     1.07400000           3.28517000          -1.54763000         
O                     2.45596000          -1.25233000           0.32948000         
H                     0.77177000           4.09024000          -2.03005000         
H                     2.18916000           1.20544000          -2.09000000         
H                     1.55099000           0.97491000          -3.39670000         
H                     0.53914000           0.19248000          -3.03927000         
H                    -0.19126000           0.12612000          -0.78410000         
H                     0.12412000           2.30424000          -0.33346000         
