12

C                     1.75870000           0.58470000          -2.22598000         
C                     1.44708000           0.47971000          -0.71554000         
C                     1.98921000          -0.55372000          -0.14310000         
O                    -0.75264000           2.30677000          -2.15417000         
O                     0.13027000           2.98831000          -1.45186000         
O                     2.41698000          -1.56522000           0.32299000         
H                     0.52604000           3.63205000          -2.09084000         
H                     2.48056000           1.42193000          -2.16768000         
H                     1.47936000           1.28173000          -3.03490000         
H                     0.83992000           0.08843000          -2.60895000         
H                    -0.89482000           1.46604000          -1.64627000         
H                     0.96854000           1.20927000          -0.11950000         
