12

C                     1.35631000           1.26707000          -2.94672000         
C                    -0.12965000          -0.35634000          -0.35236000         
C                     0.99230000          -0.18060000           0.04026000         
O                     0.47201000           2.35679000          -2.84690000         
O                     0.68850000           2.92686000          -1.67585000         
O                     2.24793000           0.02621000           0.45355000         
H                     0.90507000           3.86955000          -1.89476000         
H                     2.21408000           1.31924000          -2.23493000         
H                     1.78511000           1.24618000          -3.96770000         
H                     0.79846000           0.32276000          -2.78613000         
H                    -1.13537000          -0.39397000          -0.66517000         
H                     2.19445000           0.93626000           0.84091000         
