12

C                     1.73213000           0.87686000          -3.41545000         
C                     0.35673000           0.55535000           0.59549000         
C                     0.57210000           1.29042000          -0.49588000         
O                     0.58190000           1.40651000          -2.81274000         
O                     0.95358000           2.58086000          -0.36245000         
O                     0.40622000           0.73038000          -1.71890000         
H                     1.12507000           3.14940000          -1.12558000         
H                     2.62440000           1.04224000          -2.77217000         
H                     1.90517000           1.40757000          -4.37412000         
H                     1.59701000          -0.20263000          -3.64777000         
H                     0.05006000          -0.48258000           0.50971000         
H                     0.48482000           0.98561000           1.58405000         
