12

C                     1.45439000           0.97194000          -3.10825000         
C                     0.48554000           1.23508000          -0.31192000         
C                     1.49290000           0.22330000          -0.79359000         
O                     1.89406000           0.15166000          -2.09079000         
O                     0.98904000           2.53137000          -0.49528000         
O                     1.95639000          -0.57313000           0.00618000         
H                     0.28576000           3.05973000          -0.95520000         
H                     1.73506000           2.02644000          -2.90571000         
H                     1.93709000           0.66120000          -4.05727000         
H                     0.35333000           0.88534000          -3.22591000         
H                    -0.46817000           1.07790000          -0.86763000         
H                     0.27382000           1.08916000           0.76957000         
