12

C                     1.61355000           0.95285000          -2.96221000         
C                     1.03860000           0.91347000          -0.08748000         
C                     1.66878000          -0.22875000          -0.19261000         
O                     0.80356000           1.84879000          -2.25368000         
O                     1.19212000           1.90720000          -1.00631000         
O                     2.28537000          -1.25121000          -0.27129000         
H                    -0.95122000           3.26064000          -1.31363000         
H                     2.65593000           0.93474000          -2.57673000         
H                     1.66580000           1.27218000          -4.02355000         
H                     1.12611000          -0.04341000          -2.92828000         
H                    -1.28353000           2.63485000          -1.28671000         
H                     0.57414000           1.13866000           0.86666000         
