12

C                     1.37648000           1.02374000          -2.88967000         
C                     0.28310000           0.24730000          -0.91620000         
C                     1.34102000          -0.39075000          -0.45626000         
O                     0.29227000           1.03899000          -2.03150000         
O                     1.18129000           3.20315000          -0.55208000         
O                     2.31503000          -0.98359000          -0.08995000         
H                     0.65376000           3.55085000          -1.32268000         
H                     2.29688000           1.36696000          -2.35497000         
H                     1.30700000           1.48894000          -3.89572000         
H                     1.40243000          -0.00501000          -3.23735000         
H                    -0.63365000           0.10013000          -0.34496000         
H                     0.57360000           2.69930000           0.05553000         
