12

C                     0.79860000           0.57300000          -3.00929000         
C                     0.39227000           0.27154000           0.37358000         
C                     1.43700000          -0.49913000           0.23749000         
O                    -0.03630000           1.35630000          -3.42904000         
O                     2.01237000           3.84642000          -2.25317000         
O                     2.39438000          -1.20483000           0.11022000         
H                     1.04518000           3.80474000          -2.04478000         
H                     1.73223000           0.94220000          -2.59945000         
H                     2.07804000           3.53334000          -3.19038000         
H                     0.60487000          -0.49338000          -3.03747000         
H                    -0.55851000          -0.02475000          -0.05575000         
H                     0.48908000           1.23456000           0.86224000         
