12

C                     1.42897000           1.18665000          -2.80725000         
C                     1.11771000           0.62283000          -0.44784000         
C                     1.86509000          -0.40927000          -0.19476000         
O                     0.66596000           0.84883000          -1.71217000         
O                    -0.44399000           3.10847000          -0.90969000         
O                     2.48697000          -1.40555000           0.01690000         
H                     0.32682000           3.18731000          -1.53290000         
H                     2.45604000           1.41084000          -2.47831000         
H                     1.64777000           1.07964000          -3.88915000         
H                     1.08338000           0.28925000          -3.34981000         
H                    -0.91634000           2.25815000          -1.11481000         
H                     0.67083000           1.16284000           0.38400000         
