22
q 0
C    -2.069460    -1.267960    -0.96123
C    -1.463190    -0.508830    0.27735
C    -2.477530    -0.315720    -2.1223
C    -3.338400    -2.035770    -0.5112
C     0.037420    -1.805270    -2.07452
O    -1.124530    -2.280980    -1.40628
O    -1.388190    -1.409790    1.38094
O    -2.192170     0.611210    0.7433
O    -2.890220    -1.021570    -3.29769
O    -4.405420    -1.146800    -0.1722
H    -0.480450    -1.383450    1.72038
H    -2.571780     1.097740    -0.00803
H    -3.854430    -1.155850    -3.24082
H    -4.098540    -0.630810    0.60032
H    -0.444990    -0.169940    0.0658
H    -1.638220     0.316740    -2.42188
H    -3.295950     0.356330    -1.84423
H    -3.143540    -2.699660    0.33936
H    -3.688890    -2.694790    -1.31348
H     0.652530    -2.668310    -2.34086
H     0.636740    -1.156610    -1.4311
H    -0.214700    -1.282400    -3.00004
