12

C                     0.70542000           1.14051000          -3.21743000         
C                     0.53942000           0.48619000          -1.88048000         
C                     1.86705000           0.38472000          -1.18370000         
O                     0.12193000           2.18154000          -3.47385000         
O                     2.57260000           1.49386000          -0.87501000         
O                     2.31410000          -0.71107000          -0.88436000         
H                     0.31133000           2.67487000           0.72686000         
H                     2.24746000           2.37901000          -1.09150000         
H                     1.34701000           0.68734000          -3.96635000         
H                     0.41523000           2.07565000           1.08943000         
H                     0.10688000          -0.52618000          -2.03232000         
H                    -0.15923000           1.07356000          -1.24700000         
