12

C                     0.30870000           2.30243000          -3.75742000         
C                     0.87864000          -0.10527000          -1.20383000         
C                     1.30560000          -1.25888000          -0.35614000         
O                    -0.56082000           2.96086000          -3.47078000         
O                     1.74724000           3.70094000          -0.63950000         
O                     2.32037000          -1.88218000          -0.62341000         
H                     1.24865000           4.14221000          -1.37236000         
H                     2.35154000           3.06473000          -1.09845000         
H                     1.59491000           0.05511000          -2.03748000         
H                     0.70955000          -1.54548000           0.50375000         
H                    -0.12757000          -0.30873000          -1.62539000         
H                     0.83488000           0.81328000          -0.58299000         
