12

C                     0.96577000           1.27285000          -2.84024000         
C                     1.00096000           0.73491000          -1.48405000         
C                     1.70607000          -0.34929000          -1.31593000         
O                     0.19412000           2.16569000          -3.14387000         
O                     1.73783000           3.76471000          -0.65711000         
O                     2.36895000          -1.33874000          -1.22079000         
H                     1.21455000           4.08914000          -1.43261000         
H                     2.39168000           3.13116000          -1.04657000         
H                     1.62809000           0.84211000          -3.58493000         
H                    -0.40233000          -1.15154000          -0.03690000         
H                    -0.80342000          -0.97023000          -0.59239000         
H                     0.38692000           1.14924000          -0.68032000         
