12

C                     0.55046000           1.27422000          -2.90718000         
C                     0.20681000           0.69420000          -1.56491000         
C                     1.31599000           0.91676000          -0.52014000         
O                    -0.15182000           2.13935000          -3.40576000         
O                     1.50269000           2.27920000          -0.21809000         
O                     2.52635000           0.30520000          -0.89419000         
H                     1.76625000           2.74667000          -1.05224000         
H                     2.96672000           0.88394000          -1.56890000         
H                     1.42309000           0.91999000          -3.44592000         
H                     0.97962000           0.42652000           0.41796000         
H                     0.03742000          -0.39647000          -1.69017000         
H                    -0.73436000           1.15042000          -1.18616000         
