12

C                     0.55688000           1.66178000          -1.44536000         
C                     0.02173000           0.34804000          -0.95802000         
C                     1.12380000          -0.65890000          -0.83196000         
O                     0.14451000           2.14002000          -2.49158000         
O                     1.48871000           2.31847000          -0.72169000         
O                     1.76956000          -0.99753000          -1.81135000         
H                     2.51656000           3.32976000          -3.65021000         
H                     1.84836000           3.16836000          -1.01284000         
H                     2.77165000           2.66995000          -3.62025000         
H                     1.34700000          -1.09861000           0.13472000         
H                    -0.74603000          -0.04225000          -1.66110000         
H                    -0.45353000           0.50092000           0.03394000         
