12

C                     0.52878000           1.46341000          -2.00370000         
C                     0.50900000           0.81978000          -0.86445000         
C                     1.33118000          -0.38309000          -0.64026000         
O                     0.54744000           2.05252000          -3.04500000         
O                     1.93305000           4.05913000          -0.52988000         
O                     2.06610000          -0.82022000          -1.51272000         
H                     1.34186000           4.31494000          -1.28207000         
H                     2.55644000           3.39503000          -0.91865000         
H                     0.50251000          -0.85115000          -3.93112000         
H                     1.28260000          -0.88886000           0.31798000         
H                    -0.08159000          -1.00341000          -3.56100000         
H                    -0.12815000           1.18192000          -0.06484000         
