12

C                     0.83927000           1.12967000          -2.96149000         
C                     0.42643000           0.08143000          -2.03513000         
C                     1.36830000          -0.72941000          -1.63866000         
O                     0.09350000           2.05100000          -3.24331000         
O                     1.73049000           3.74434000          -0.66269000         
O                     2.27198000          -1.44016000          -1.31332000         
H                     1.21375000           4.08415000          -1.43602000         
H                     2.37239000           3.10119000          -1.05626000         
H                     1.84343000           1.08866000          -3.37345000         
H                     0.37969000          -0.25879000           0.70660000         
H                    -0.57720000           0.05072000          -1.60327000         
H                     0.42716000           0.43720000           0.58130000         
