12

C                     1.89059000           1.72403000          -3.54256000         
C                     0.24497000           1.00777000          -0.50048000         
C                     1.04506000          -0.24768000          -0.36184000         
O                     0.92379000           2.39855000          -3.85438000         
O                     1.09721000           2.11452000          -0.40678000         
O                     1.93307000          -0.50494000          -1.15823000         
H                     0.56006000           2.90157000          -0.68433000         
H                     2.64676000           2.13308000          -2.88153000         
H                     1.98854000           0.71091000          -3.91617000         
H                     0.83546000          -0.93893000           0.44776000         
H                    -0.26483000           0.99183000          -1.48993000         
H                    -0.51147000           1.04931000           0.31276000         
