12

C                     0.20316000           1.62241000          -2.72226000         
C                    -0.09404000           1.69184000          -1.25500000         
C                     2.74090000          -0.37905000          -1.01044000         
O                    -0.51044000           2.20076000          -3.52520000         
O                     0.99366000           2.24024000          -0.56368000         
O                     2.90990000          -1.30797000          -1.78175000         
H                     3.18009000           0.58944000          -1.22350000         
H                     1.04941000           3.19523000          -0.82937000         
H                     1.05866000           1.05596000          -3.07531000         
H                     2.14263000          -0.51749000          -0.11649000         
H                    -0.27150000           0.66228000          -0.88002000         
H                    -1.01323000           2.28635000          -1.05269000         
