12

C                     0.60757000           1.57594000          -2.81882000         
C                    -0.00750000           1.94756000          -1.50473000         
C                     2.40870000          -0.73475000          -0.59045000         
O                     0.17555000           2.04992000          -3.85679000         
O                     0.08210000           3.33030000          -1.29799000         
O                     2.66438000          -1.52418000          -1.48387000         
H                     1.02786000           3.52103000          -1.06232000         
H                     2.92127000           0.22013000          -0.54727000         
H                     1.44005000           0.88141000          -2.85316000         
H                     1.66093000          -0.98211000           0.15485000         
H                    -1.07763000           1.65260000          -1.50483000         
H                     0.48591000           1.40215000          -0.67031000         
