12

C                     0.56591000           0.23951000          -3.49717000         
C                     0.48908000           0.52282000          -0.05885000         
C                     1.59077000          -0.14791000          -0.25524000         
O                    -0.07777000           1.27520000          -3.49746000         
O                     1.88460000           3.89950000          -0.76813000         
O                     2.60081000          -0.76349000          -0.43809000         
H                     1.17756000           4.02875000          -1.44926000         
H                     2.38752000           3.10568000          -1.08044000         
H                     1.61814000           0.25470000          -3.75849000         
H                     0.08838000          -0.69566000          -3.22588000         
H                    -0.46920000           0.06974000          -0.28818000         
H                     0.53340000           1.55118000           0.28150000         
