12

C                     2.05010000           2.16370000          -3.19979000         
C                    -0.16597000           0.65371000          -0.52867000         
C                     0.82390000          -0.46560000          -0.56647000         
O                     1.07852000           2.76374000          -3.63007000         
O                     2.64001000           2.55199000          -2.05023000         
O                     1.82851000          -0.38511000          -1.25453000         
H                     0.15409000           1.49168000          -1.18126000         
H                     2.30850000           3.30640000          -1.54285000         
H                     2.43643000           1.30589000          -3.73902000         
H                     0.64836000          -1.35870000           0.02317000         
H                    -1.15251000           0.28524000          -0.87770000         
H                    -0.26075000           1.02708000           0.51171000         
