12

C                     0.50844000           1.53163000          -3.01302000         
C                    -0.44350000           1.76725000          -1.88666000         
C                     2.37266000          -0.08026000          -0.16112000         
O                     0.29035000           2.01636000          -4.11128000         
O                     2.55463000           1.24877000          -0.02345000         
O                     2.91352000          -0.68808000          -1.07192000         
H                    -0.51875000           2.85543000          -1.68104000         
H                     3.10920000           1.74907000          -0.63888000         
H                     1.39721000           0.92896000          -2.86043000         
H                     1.73668000          -0.61170000           0.53776000         
H                    -1.44543000           1.37136000          -2.15328000         
H                    -0.08581000           1.25121000          -0.97237000         
