12

C                     1.26333000           0.77910000          -2.62362000         
C                     1.12391000           0.83575000          -1.12954000         
C                     1.50155000          -0.48451000          -0.52688000         
O                     0.29302000           0.96058000          -3.34299000         
O                     1.96233000           1.83314000          -0.61045000         
O                     2.62500000          -0.93873000          -0.67315000         
H                     1.48815000           2.69771000          -0.72648000         
H                    -0.19831000           3.68688000          -2.44347000         
H                     2.23009000           0.57683000          -3.07332000         
H                     0.77163000          -1.04193000           0.05197000         
H                    -0.73618000           3.39225000          -2.08968000         
H                     0.06468000           1.04294000          -0.84809000         
