12

C                     0.41159000           1.28204000          -3.78040000         
C                     0.10269000           1.36739000          -2.32154000         
C                     2.09626000           0.34898000           0.55604000         
O                    -0.28391000           1.86512000          -4.59637000         
O                     1.90227000           1.64084000           0.89129000         
O                     2.88710000           0.05027000          -0.32488000         
H                     2.37975000           2.35490000           0.44536000         
H                     0.96869000           1.81296000          -1.79164000         
H                     1.26192000           0.69862000          -4.11751000         
H                     1.54351000          -0.42915000           1.07025000         
H                    -0.08734000           0.34886000          -1.92360000         
H                    -0.79332000           1.99918000          -2.14268000         
