12

C                     1.11867000           1.02004000          -2.80172000         
C                     0.90949000           0.71991000          -1.33648000         
C                     1.49912000          -0.59649000          -0.88721000         
O                     0.65017000           2.03767000          -3.28682000         
O                     1.42671000           1.76204000          -0.55051000         
O                     2.12049000          -1.32148000          -1.64850000         
H                    -0.04899000           4.07502000          -1.34952000         
H                     2.40386000           1.81254000          -0.72475000         
H                     1.67792000           0.34685000          -3.44290000         
H                     1.36650000          -0.90516000           0.14471000         
H                    -0.18582000           0.66466000          -1.16085000         
H                    -0.54892000           3.72441000          -0.99114000         
