12

C                     2.28697000           1.25545000          -2.64603000         
C                     2.32996000           0.19762000          -1.88296000         
C                     2.37165000          -0.84059000          -1.13323000         
O                    -0.23429000           2.60577000          -1.28709000         
O                     0.66592000           3.54027000          -1.06235000         
O                     2.40992000          -1.81006000          -0.43332000         
H                     0.34291000           4.32899000          -1.56799000         
H                     2.87423000           2.13067000          -2.39074000         
H                     1.58600000           1.29883000          -3.47232000         
H                    -0.67209000          -1.10697000          -0.56141000         
H                    -0.84332000          -0.78048000          -1.16584000         
H                    -0.72857000           2.52040000          -0.43262000         
