12

C                     1.53597000           2.08360000          -1.66246000         
C                     1.30484000           0.84591000          -1.21505000         
C                     2.04649000          -0.30861000          -1.74939000         
O                     0.84230000           3.12361000          -1.15440000         
O                     1.06362000           4.32941000          -1.56915000         
O                     1.82127000          -1.42943000          -1.32282000         
H                     0.31569000           4.52487000          -2.18917000         
H                     2.28155000           2.25908000          -2.43444000         
H                     2.79698000          -0.17467000          -2.52240000         
H                    -0.98619000          -1.43990000          -0.57854000         
H                    -1.19112000          -1.15982000          -1.19569000         
H                     0.55791000           0.68585000          -0.44239000         
