12

C                     1.11099000           1.36033000          -2.75721000         
C                     1.48494000           0.45638000          -1.86809000         
C                     1.97034000          -0.54207000          -1.20279000         
O                     0.58394000           2.61614000          -2.59046000         
O                     0.48133000           3.32201000          -1.51064000         
O                     2.44580000          -1.49303000          -0.64644000         
H                     0.80555000           4.22741000          -1.78110000         
H                     2.17086000           2.26289000          -0.27460000         
H                     1.28795000           1.06424000          -3.77094000         
H                    -0.64540000          -1.14262000          -0.55715000         
H                    -0.89469000          -0.83637000          -1.14489000         
H                     1.58770000           2.04461000           0.06842000         
