12

C                     2.07141000           2.06852000          -1.68261000         
C                     2.17684000           0.81756000          -1.29354000         
C                     2.25443000          -0.44218000          -1.05651000         
O                     0.91936000           2.68262000          -2.04644000         
O                     0.44863000           3.66638000          -1.36301000         
O                     2.33144000          -1.60884000          -0.80504000         
H                     0.84549000           4.46358000          -1.78959000         
H                     2.89069000           2.35109000          -2.25718000         
H                     0.09252000           0.59055000          -2.35126000         
H                    -0.60258000          -1.14648000          -0.54865000         
H                    -0.90946000          -0.91135000          -1.13511000         
H                    -0.12947000           0.80845000          -1.70695000         
