12

C                     1.29030000           1.84274000          -2.43118000         
C                     1.48049000           1.14029000          -1.30298000         
C                     2.36083000          -0.04032000          -1.28429000         
O                     0.48732000           2.93458000          -2.48171000         
O                    -0.14402000           3.38772000          -1.44514000         
O                     2.51853000          -0.66732000          -0.24964000         
H                     0.33252000           4.22329000          -1.20677000         
H                     2.87509000          -0.36202000          -2.18493000         
H                     1.79131000           1.53710000          -3.34511000         
H                    -0.65428000          -1.18516000          -0.56796000         
H                    -0.93374000          -0.90373000          -1.15443000         
H                     0.98493000           1.43272000          -0.38176000         
