12

C                     0.71377000           1.32519000          -2.69649000         
C                     1.55010000           0.83682000          -1.57746000         
C                     1.93996000           1.90445000          -0.95293000         
O                     0.70941000           2.74238000          -2.58874000         
O                     1.44968000           2.99604000          -1.54439000         
O                     2.72876000           1.91847000           0.13936000         
H                     2.98126000           2.75451000           0.55474000         
H                     1.16270000           1.01595000          -3.66395000         
H                    -0.31885000           0.92986000          -2.59443000         
H                    -1.01247000          -1.56937000          -0.59596000         
H                    -1.30779000          -1.32759000          -1.19223000         
H                     1.79276000          -0.18680000          -1.32344000         
