12

C                     0.98838000           1.26483000          -2.50432000         
C                     1.10140000           0.71305000          -1.14297000         
C                     1.82707000          -0.36397000          -0.99284000         
O                     0.25055000           2.20232000          -2.76302000         
O                     1.70112000           3.63767000          -1.07495000         
O                     2.50497000          -1.34534000          -0.90564000         
H                     1.12451000           4.16879000          -1.68612000         
H                     2.35131000           3.14835000          -1.64738000         
H                     1.60124000           0.84692000          -3.28674000         
H                    -0.65795000          -1.16365000          -0.56377000         
H                    -0.90237000          -0.85822000          -1.15482000         
H                     0.49907000           1.08914000          -0.31332000         
