12

C                     2.43804000           1.76923000          -1.88393000         
C                     1.15220000           1.11114000          -1.53101000         
C                     1.21618000          -0.17950000          -1.31939000         
O                     0.00641000           1.81909000          -1.39324000         
O                     0.01539000           3.11322000          -1.26236000         
O                     1.31705000          -1.34680000          -1.07510000         
H                     0.33688000           3.49018000          -2.12269000         
H                     2.37370000           2.84422000          -2.12330000         
H                     2.82682000           1.26060000          -2.79536000         
H                    -1.08355000          -1.25630000          -0.46668000         
H                    -1.28289000          -0.96134000          -1.07934000         
H                     3.07307000           1.67616000          -0.98351000         
