12

C                     1.35622000           1.74725000          -2.24147000         
C                     1.14076000           0.83894000          -1.06084000         
C                     0.84700000          -0.45752000          -1.20619000         
O                     0.39954000           2.77838000          -2.24271000         
O                     0.80766000           3.67676000          -1.36390000         
O                     0.66180000          -1.23114000          -0.11786000         
H                     1.09573000           4.45313000          -1.90910000         
H                     2.39299000           2.15522000          -2.22776000         
H                     1.25802000           1.18872000          -3.19720000         
H                     0.44717000          -2.16935000          -0.21131000         
H                     0.75423000          -0.89736000          -2.19575000         
H                     1.22817000           1.25687000          -0.06179000         
