12

C                     1.44809000           1.75604000          -2.68926000         
C                     0.79263000           1.44132000          -1.35086000         
C                     1.97931000           1.62671000          -0.52746000         
O                     2.55457000           2.59780000          -2.42529000         
O                     2.93039000           2.25250000          -1.22567000         
O                     2.05606000           1.40341000           0.66960000         
H                     0.05580000           2.21197000          -1.03817000         
H                     1.86137000           0.81829000          -3.12623000         
H                     0.72382000           2.19814000          -3.40531000         
H                    -0.99708000          -1.74748000          -0.48722000         
H                    -1.36808000          -1.64058000          -1.08070000         
H                     0.35242000           0.42178000          -1.34932000         
