12

C                     1.02179000           1.54932000          -2.54448000         
C                     0.71185000          -0.25388000          -0.14484000         
C                     1.79187000          -0.76902000          -0.66272000         
O                     0.46346000           2.82944000          -2.64278000         
O                     0.67086000           3.40889000          -1.47173000         
O                     2.79493000          -1.23861000          -1.11168000         
H                     0.85373000           4.35691000          -1.69472000         
H                     1.99184000           1.59984000          -1.99027000         
H                     1.41629000           1.15290000          -3.48509000         
H                    -0.05681000          -0.94971000           0.13265000         
H                     0.19635000           0.82831000          -2.32133000         
H                     0.53315000           0.82551000          -0.09890000         
