12

C                     2.02651000           1.49260000          -2.65412000         
C                     0.85209000           0.44752000           0.26137000         
C                     1.45821000           0.36326000          -0.77706000         
O                     0.80650000           2.18834000          -2.46614000         
O                     1.02073000           3.07886000          -1.51237000         
O                     2.08455000           0.25024000          -1.96966000         
H                     0.85276000           3.95552000          -1.94062000         
H                     2.92417000           2.11307000          -2.42357000         
H                     2.09235000           1.27358000          -3.74003000         
H                    -0.96518000          -1.41727000          -0.71508000         
H                    -1.07324000          -0.97641000          -1.25872000         
H                     0.30985000           0.57059000           1.16010000         
