12

C                     1.51756000           0.86113000          -2.39751000         
C                     1.94708000           0.44090000          -1.02308000         
C                     2.26752000          -0.80780000          -0.81248000         
O                    -1.01180000           2.45146000          -1.26719000         
O                    -0.00233000           3.21382000          -0.90074000         
O                     2.56259000          -1.95065000          -0.62225000         
H                     0.26085000           3.69656000          -1.72561000         
H                     1.64142000           1.95658000          -2.49777000         
H                     2.13571000           0.37551000          -3.17577000         
H                    -0.83248000           1.57213000          -0.84648000         
H                     0.45254000           0.59186000          -2.56546000         
H                     1.45065000           0.93839000          -0.20156000         
