12

C                     1.70500000           2.59070000          -2.70823000         
C                     0.82070000           0.84455000          -0.31251000         
C                     1.68867000          -0.00519000          -0.81233000         
O                     0.47915000           2.32565000          -2.07035000         
O                     0.69128000           2.10211000          -0.80468000         
O                     2.44652000          -0.79666000          -1.30027000         
H                     1.75154000           3.65931000          -3.01851000         
H                     2.59304000           2.33434000          -2.08762000         
H                     1.73573000           1.98774000          -3.64784000         
H                    -0.77438000          -1.31663000          -0.62919000         
H                    -0.97632000          -0.94487000          -1.19768000         
H                     0.22837000           0.55885000           0.55332000         
