12
0.0
C        1.211836       1.490445      -2.203129
C        0.224945       0.405585      -1.779567
C        0.786568      -0.478570      -0.699267
O        1.305281       2.398943      -1.129970
O        2.259133       3.404943      -1.468069
O        0.637315      -1.664443      -0.636425
H        2.291465       3.933897      -0.660277
H        0.849539       2.010159      -3.099383
H        2.200412       1.065202      -2.419499
H        1.357201       0.076911       0.067199
H       -0.663830       0.892392      -1.367796
H       -0.070854      -0.195763      -2.639407
12
-4.671807982958853e-05
C        1.211828       1.490469      -2.203143
C        0.224954       0.405586      -1.779567
C        0.786554      -0.478573      -0.699250
O        1.305298       2.398939      -1.129965
O        2.259146       3.404939      -1.468058
O        0.637289      -1.664529      -0.636400
H        2.291468       3.933889      -0.660274
H        0.849509       2.010200      -3.099381
H        2.200397       1.065242      -2.419544
H        1.357230       0.076916       0.067191
H       -0.663826       0.892383      -1.367799
H       -0.070836      -0.195761      -2.639400
