12
133.80309036911422
C        1.120095       1.138125      -2.100945
C       -0.063416       0.497907      -1.442816
C        1.369267      -0.105382      -0.057315
O        1.870773       2.075458      -1.098082
O        3.053786       2.325062      -1.753258
O        1.940836      -1.149150       0.033456
H        1.689243       3.012164      -0.696865
H        0.846069       1.796797      -2.933669
H        1.892715       0.424335      -2.388027
H        1.358600       0.709794       0.688504
H       -1.022982       1.022607      -1.686989
H       -0.201703      -0.542410      -1.775523
12
133.72369279393934
C        1.120422       1.138600      -2.100881
C       -0.063016       0.498180      -1.442578
C        1.369058      -0.104804      -0.057654
O        1.871035       2.075937      -1.098086
O        3.054038       2.325886      -1.753284
O        1.940604      -1.148689       0.033066
H        1.689384       3.012521      -0.696863
H        0.846132       1.797369      -2.933437
H        1.893100       0.424941      -2.388152
H        1.358439       0.710321       0.688297
H       -1.022628       1.023033      -1.686475
H       -0.201277      -0.542167      -1.775292
