12
184.49643191306131
C        1.004502       1.289513      -2.176904
C       -0.425399       1.085322      -1.919739
C        1.832433      -0.377320       0.284964
O        1.632251       1.676389      -0.867023
O        2.942702       1.352299      -1.189809
O        2.659058      -1.162716       0.541607
H        1.316942       2.618853      -0.543779
H        1.328755       2.000828      -2.940920
H        1.473719       0.339127      -2.396771
H        1.360155       0.345034       0.939465
H       -1.167335       1.572606      -2.555953
H       -0.656105       0.045248      -2.179504
12
184.49283530486355
C        1.004467       1.289499      -2.176903
C       -0.425423       1.085291      -1.919744
C        1.832426      -0.377302       0.285000
O        1.632212       1.676398      -0.867030
O        2.942695       1.352309      -1.189790
O        2.659053      -1.162692       0.541662
H        1.316918       2.618855      -0.543823
H        1.328707       2.000808      -2.940931
H        1.473697       0.339116      -2.396748
H        1.360136       0.345060       0.939485
H       -1.167362       1.572558      -2.555970
H       -0.656118       0.045214      -2.179486
