15

C                     5.36187000          -2.10087000          -1.22058000         
C                     5.44607000          -3.08003000          -0.31389000         
H                     4.47491000          -2.04335000          -1.84542000         
H                     6.31335000          -3.17923000           0.33048000         
H                     4.63250000          -3.79187000          -0.20976000         
C                     6.45259000          -1.08586000          -1.43078000         
C                     5.95790000           0.34825000          -1.18897000         
C                     5.72386000           0.65217000           0.29182000         
H                     7.33778000          -1.28500000          -0.78576000         
H                     6.77250000          -1.17563000          -2.48971000         
H                     6.73266000           1.05864000          -1.54909000         
H                     5.02902000           0.52792000          -1.77498000         
H                     5.34467000           1.69102000           0.40134000         
H                     4.99416000          -0.04221000           0.74458000         
H                     6.67541000           0.56034000           0.85527000         
