54

C                    -5.72084000          -0.95635000          -0.22893000         
C                    -5.08197000          -2.25284000           0.17746000         
C                    -5.64342000          -0.51523000          -1.49257000         
C                    -6.26542000           0.77968000          -1.96040000         
H                    -3.17133000          -0.16308000          -0.79556000         
H                    -6.25167000          -0.38649000           0.52499000         
H                    -5.13044000          -1.12519000          -2.23259000         
H                    -3.98681000          -2.21793000           0.00302000         
H                    -5.51618000          -3.08941000          -0.40959000         
H                    -5.26157000          -2.43733000           1.25653000         
H                    -6.17032000           0.80042000          -3.06806000         
H                    -7.34835000           0.78699000          -1.71309000         
C                    -5.57993000           2.06545000          -1.45595000         
C                    -5.65842000           2.29867000           0.05195000         
Ga                   -2.18040000           0.94794000          -0.28508000         
H                    -4.51751000           2.07379000          -1.77842000         
H                    -6.08357000           2.92410000          -1.94942000         
H                    -5.20024000           3.28117000           0.29382000         
H                    -6.71676000           2.30807000           0.38614000         
H                    -5.09265000           1.53096000           0.61337000         
O                    -0.87770000           0.86370000          -1.44290000         
O                    -1.67910000           0.46810000           1.30850000         
Si                    1.47950000           2.57020000           0.57870000         
Si                    2.65470000           0.82920000          -1.90310000         
Si                   -0.27540000          -0.17650000          -2.54720000         
Si                    1.83200000          -0.02460000           2.59190000         
Si                    3.08210000          -1.67890000           0.13560000         
Si                    0.07730000          -2.68830000          -0.58700000         
Si                   -1.15050000          -0.95720000           1.92190000         
O                     2.14760000           2.03110000          -0.83710000         
O                     1.36010000           0.24580000          -2.79260000         
O                    -0.22790000           2.87690000           0.41590000         
O                     1.67790000           1.41560000           1.73960000         
O                     3.25740000          -0.40930000          -0.94830000         
O                    -0.25860000          -1.76920000          -1.95480000         
O                     2.82900000          -0.99320000           1.65270000         
O                     1.73070000          -2.54800000          -0.30020000         
O                    -0.74880000          -2.07090000           0.71560000         
O                     0.31870000          -0.71410000           2.75670000         
O                    -1.11330000          -0.16090000          -4.01310000         
O                     3.83580000           1.50490000          -2.88870000         
O                     4.41280000          -2.70190000           0.14640000         
O                    -0.35400000          -4.30320000          -0.78410000         
O                     1.96170000           4.12540000           1.00150000         
O                     2.54170000           0.27120000           4.08620000         
O                    -2.28620000          -1.64670000           2.96440000         
H                     2.15700000          -0.00390000           4.93160000         
H                    -0.49970000           3.79910000           0.58150000         
H                     2.86610000           4.46200000           1.07260000         
H                     3.99930000           1.23900000          -3.80560000         
H                    -1.08030000          -0.88350000          -4.65800000         
H                     0.15580000          -4.94120000          -1.30530000         
H                    -2.22980000          -2.56140000           3.28030000         
H                     5.24250000          -2.52450000           0.61310000         
