54

C                    -5.27492000          -0.61179000           0.51475000         
C                    -6.22800000          -1.57048000           1.23598000         
C                    -4.89095000          -1.23157000          -0.82345000         
C                    -5.07024000          -0.67289000          -2.02889000         
H                    -2.79304000           2.46169000          -0.24623000         
H                    -4.34278000          -0.54332000           1.11244000         
H                    -4.42027000          -2.21054000          -0.79395000         
H                    -5.75687000          -2.57271000           1.33168000         
H                    -7.17774000          -1.67391000           0.66873000         
H                    -6.45280000          -1.22066000           2.26282000         
H                    -4.74651000          -1.20532000          -2.91796000         
H                    -5.52461000           0.30102000          -2.16406000         
C                    -5.86963000           0.81677000           0.39323000         
C                    -6.06061000           1.51403000           1.74131000         
Ga                   -2.17975000           0.97321000          -0.28276000         
H                    -5.16771000           1.45536000          -0.18337000         
H                    -6.83847000           0.78549000          -0.15016000         
H                    -6.43675000           2.54541000           1.57083000         
H                    -6.79784000           0.98518000           2.37546000         
H                    -5.08883000           1.58060000           2.27714000         
O                    -0.87770000           0.86370000          -1.44290000         
O                    -1.67910000           0.46810000           1.30850000         
Si                    1.47950000           2.57020000           0.57870000         
Si                    2.65470000           0.82920000          -1.90310000         
Si                   -0.27540000          -0.17650000          -2.54720000         
Si                    1.83200000          -0.02460000           2.59190000         
Si                    3.08210000          -1.67890000           0.13560000         
Si                    0.07730000          -2.68830000          -0.58700000         
Si                   -1.15050000          -0.95720000           1.92190000         
O                     2.14760000           2.03110000          -0.83710000         
O                     1.36010000           0.24580000          -2.79260000         
O                    -0.22790000           2.87690000           0.41590000         
O                     1.67790000           1.41560000           1.73960000         
O                     3.25740000          -0.40930000          -0.94830000         
O                    -0.25860000          -1.76920000          -1.95480000         
O                     2.82900000          -0.99320000           1.65270000         
O                     1.73070000          -2.54800000          -0.30020000         
O                    -0.74880000          -2.07090000           0.71560000         
O                     0.31870000          -0.71410000           2.75670000         
O                    -1.11330000          -0.16090000          -4.01310000         
O                     3.83580000           1.50490000          -2.88870000         
O                     4.41280000          -2.70190000           0.14640000         
O                    -0.35400000          -4.30320000          -0.78410000         
O                     1.96170000           4.12540000           1.00150000         
O                     2.54170000           0.27120000           4.08620000         
O                    -2.28620000          -1.64670000           2.96440000         
H                     2.15700000          -0.00390000           4.93160000         
H                    -0.49970000           3.79910000           0.58150000         
H                     2.86610000           4.46200000           1.07260000         
H                     3.99930000           1.23900000          -3.80560000         
H                    -1.08030000          -0.88350000          -4.65800000         
H                     0.15580000          -4.94120000          -1.30530000         
H                    -2.22980000          -2.56140000           3.28030000         
H                     5.24250000          -2.52450000           0.61310000         
