54

C                    -5.87591000          -0.99747000           0.10302000         
C                    -6.78087000           0.25252000           0.16466000         
C                    -5.26328000          -1.33655000          -1.24445000         
C                    -5.44598000          -0.65890000          -2.38767000         
H                    -5.06629000          -0.91429000           0.85880000         
H                    -6.49408000          -1.87695000           0.38016000         
H                    -4.62634000          -2.21513000          -1.28343000         
H                    -3.09459000          -0.23527000          -0.75718000         
H                    -7.53276000           0.17269000          -0.64472000         
H                    -7.33728000           0.24746000           1.12486000         
H                    -4.95317000          -0.99909000          -3.29371000         
H                    -6.06988000           0.22157000          -2.45709000         
C                    -6.03954000           1.60412000           0.06964000         
C                    -5.23724000           1.93199000           1.33094000         
Ga                   -2.17950000           0.94260000          -0.28942000         
H                    -5.37888000           1.63980000          -0.81965000         
H                    -6.80161000           2.40438000          -0.04099000         
H                    -4.74977000           2.92458000           1.21104000         
H                    -5.91118000           1.97760000           2.21182000         
H                    -4.45392000           1.17845000           1.53044000         
O                    -0.87770000           0.86370000          -1.44290000         
O                    -1.67910000           0.46810000           1.30850000         
Si                    1.47950000           2.57020000           0.57870000         
Si                    2.65470000           0.82920000          -1.90310000         
Si                   -0.27540000          -0.17650000          -2.54720000         
Si                    1.83200000          -0.02460000           2.59190000         
Si                    3.08210000          -1.67890000           0.13560000         
Si                    0.07730000          -2.68830000          -0.58700000         
Si                   -1.15050000          -0.95720000           1.92190000         
O                     2.14760000           2.03110000          -0.83710000         
O                     1.36010000           0.24580000          -2.79260000         
O                    -0.22790000           2.87690000           0.41590000         
O                     1.67790000           1.41560000           1.73960000         
O                     3.25740000          -0.40930000          -0.94830000         
O                    -0.25860000          -1.76920000          -1.95480000         
O                     2.82900000          -0.99320000           1.65270000         
O                     1.73070000          -2.54800000          -0.30020000         
O                    -0.74880000          -2.07090000           0.71560000         
O                     0.31870000          -0.71410000           2.75670000         
O                    -1.11330000          -0.16090000          -4.01310000         
O                     3.83580000           1.50490000          -2.88870000         
O                     4.41280000          -2.70190000           0.14640000         
O                    -0.35400000          -4.30320000          -0.78410000         
O                     1.96170000           4.12540000           1.00150000         
O                     2.54170000           0.27120000           4.08620000         
O                    -2.28620000          -1.64670000           2.96440000         
H                     2.15700000          -0.00390000           4.93160000         
H                    -0.49970000           3.79910000           0.58150000         
H                     2.86610000           4.46200000           1.07260000         
H                     3.99930000           1.23900000          -3.80560000         
H                    -1.08030000          -0.88350000          -4.65800000         
H                     0.15580000          -4.94120000          -1.30530000         
H                    -2.22980000          -2.56140000           3.28030000         
H                     5.24250000          -2.52450000           0.61310000         
