12
79.07609213708565
C        0.773123       1.174294      -2.574357
C        0.590077       0.828064      -1.107089
C        1.957007       0.202011      -0.557506
O        0.337735       2.495206      -2.530473
O        1.455981       2.288159      -0.657601
O        2.654288       0.567651       0.323471
H        1.053734       3.147079      -0.827742
H        1.823689       1.074845      -2.867900
H        0.173416       0.600006      -3.298831
H        2.208161      -0.723265      -1.133070
H       -0.570093       2.106045      -1.985558
H        0.054380      -0.073379      -0.861866
12
76.1834490150195
C        0.767426       1.160686      -2.582023
C        0.593325       0.824417      -1.110556
C        1.959380       0.199064      -0.554745
O        0.327915       2.483100      -2.543790
O        1.456957       2.279705      -0.670776
O        2.653345       0.566337       0.327686
H        1.052896       3.137616      -0.837861
H        1.815864       1.061588      -2.881835
H        0.164578       0.579600      -3.298256
H        2.211015      -0.728969      -1.126339
H       -0.562362       2.107451      -1.996246
H        0.058395      -0.074866      -0.859013
