12
140.70343943712032
C        0.763888       1.133367      -2.587493
C        0.521834       0.677676      -1.161913
C        1.868647       0.232353      -0.564567
O        0.429517       2.476771      -2.423151
O        1.623150       2.549224      -0.799098
O        2.372293       0.591798       0.448594
H        1.211726       3.417724      -0.860432
H        1.791478       1.013268      -2.948250
H        0.090811       0.651484      -3.313066
H        2.301274      -0.585716      -1.184366
H       -0.499093       1.920088      -1.711483
H        0.038981      -0.298142      -1.047798
12
140.52542965175599
C        0.762555       1.132652      -2.588490
C        0.520678       0.675012      -1.163981
C        1.865338       0.231524      -0.562785
O        0.428170       2.476479      -2.420550
O        1.625649       2.555282      -0.803788
O        2.363672       0.590137       0.455177
H        1.215313       3.424074      -0.862677
H        1.789150       1.012544      -2.951976
H        0.086834       0.653010      -3.313284
H        2.302718      -0.584256      -1.182931
H       -0.495338       1.918135      -1.705645
H        0.038000      -0.301692      -1.052555
