12
10.585767622860658
C        0.690248       1.150101      -2.605123
C        0.340590       0.437951      -1.294212
C        1.625845       0.379501      -0.498097
O        0.798500       2.521829      -2.269738
O        1.901385       2.606465      -1.348518
O        1.794753       0.752575       0.632250
H        1.573467       3.388384      -0.893055
H        1.646953       0.851390      -3.055438
H       -0.101435       1.004872      -3.341099
H        2.431117      -0.118944      -1.076604
H       -0.518492       1.070438      -1.003889
H        0.011331      -0.596818      -1.323382
12
10.25148489872845
C        0.690787       1.148831      -2.606909
C        0.340734       0.439747      -1.294372
C        1.623783       0.374973      -0.496212
O        0.798637       2.521826      -2.272642
O        1.899663       2.613253      -1.353846
O        1.790138       0.743631       0.636597
H        1.573811       3.398069      -0.899827
H        1.646982       0.848957      -3.057501
H       -0.102119       1.004081      -3.342094
H        2.427715      -0.126939      -1.073601
H       -0.510644       1.071463      -1.002776
H        0.007943      -0.595454      -1.319494
