12
0.0
C        0.651132       1.171168      -2.596578
C        0.374913       0.367058      -1.320310
C        1.568530       0.415338      -0.401639
O        0.862705       2.531360      -2.326418
O        2.064345       2.675955      -1.579089
O        1.533421       0.744591       0.750461
H        1.833147       3.321627      -0.896816
H        1.515027       0.754598      -3.129649
H       -0.219932       1.177166      -3.255060
H        2.510141       0.090328      -0.882441
H       -0.500047       0.763834      -0.802667
H        0.195628      -0.673402      -1.595593
12
-2.870228126994334e-05
C        0.651148       1.171165      -2.596572
C        0.374907       0.367067      -1.320293
C        1.568525       0.415353      -0.401654
O        0.862713       2.531339      -2.326427
O        2.064331       2.675944      -1.579081
O        1.533461       0.744576       0.750406
H        1.833098       3.321643      -0.896786
H        1.515047       0.754575      -3.129619
H       -0.219896       1.177169      -3.255074
H        2.510124       0.090324      -0.882482
H       -0.500058       0.763855      -0.802658
H        0.195610      -0.673390      -1.595560
