54

C                    -4.58504000           0.74935000          -0.25277000         
C                    -4.39860000          -0.74930000          -0.02490000         
C                    -5.26348000           2.03993000           0.27136000         
C                    -5.88821000          -1.35800000           0.14085000         
C                    -4.83376000           2.51899000           1.68594000         
C                    -6.74792000          -1.41272000          -1.13172000         
Ga                   -2.41010000           0.00325000          -0.28436000         
H                    -5.04709000           0.70272000          -1.26641000         
H                    -4.73930000           0.46606000           0.80571000         
H                    -4.05500000          -1.37405000          -0.87704000         
H                    -6.36858000           1.90395000           0.24754000         
H                    -4.99160000           2.83453000          -0.45216000         
H                    -5.85052000          -2.37880000           0.57480000         
H                    -6.46818000          -0.74853000           0.87746000         
H                    -5.18224000           1.78777000           2.45300000         
H                    -3.72679000           2.57561000           1.74820000         
H                    -5.29065000           3.49795000           1.90860000         
H                    -6.84294000          -0.42467000          -1.62319000         
H                    -7.78362000          -1.72832000          -0.87035000         
H                    -6.32545000          -2.14692000          -1.84588000         
O                    -1.44330000          -0.32170000          -1.67670000         
O                    -1.53750000           0.70480000           1.05560000         
Si                    2.64350000           2.59470000          -0.84030000         
Si                    2.72700000          -0.35600000          -2.17660000         
Si                   -0.36010000          -1.50610000          -2.04990000         
Si                    2.29690000           1.15490000           2.08930000         
Si                    3.32550000          -1.63250000           0.76720000         
Si                    0.33900000          -2.77780000           0.86800000         
Si                   -0.70870000          -0.00580000           2.28110000         
O                     2.74780000           1.29810000          -1.88680000         
O                     1.17430000          -0.89160000          -2.37980000         
O                     1.35680000           3.60630000          -1.29580000         
O                     2.28240000           2.05930000           0.69050000         
O                     3.38230000          -1.08450000          -0.81400000         
O                    -0.15370000          -2.52760000          -0.71410000         
O                     3.07010000          -0.29070000           1.73170000         
O                     2.02390000          -2.68650000           0.91820000         
O                    -0.24610000          -1.57250000           1.85500000         
O                     0.74720000           0.80310000           2.59910000         
O                    -0.86740000          -2.40070000          -3.39260000         
O                     3.58730000          -0.73130000          -3.57490000         
O                     4.74980000          -2.40650000           1.21100000         
O                    -0.18240000          -4.28360000           1.41450000         
O                     4.12210000           3.41700000          -0.89250000         
O                     3.14440000           2.05960000           3.23090000         
O                    -1.64580000          -0.04240000           3.68820000         
H                     3.23430000           1.81760000           4.16450000         
H                     1.36850000           4.14390000          -2.10270000         
H                     4.52500000           3.85970000          -0.12980000         
H                     4.49750000          -0.44560000          -3.74510000         
H                    -0.24640000          -2.73420000          -4.05860000         
H                    -0.46570000          -4.99510000           0.82090000         
H                    -1.37320000          -0.50250000           4.49680000         
H                     4.81600000          -3.36080000           1.36440000         
