18

C                    -5.76898000           0.73465000           0.11754000         
C                    -5.70233000          -0.66649000           0.69392000         
C                    -5.47288000           1.88667000           0.75483000         
C                    -7.04531000          -1.40025000           0.59670000         
C                    -5.00186000           2.04572000           2.17576000         
C                    -7.48262000          -1.65681000          -0.84769000         
H                    -6.06166000           0.82448000          -0.92300000         
H                    -5.39854000          -0.66856000           1.75469000         
H                    -4.93885000          -1.25012000           0.13705000         
H                    -5.56396000           2.80650000           0.18278000         
H                    -6.93486000          -2.38882000           1.09377000         
H                    -7.82955000          -0.82598000           1.13551000         
H                    -4.89921000           1.10436000           2.74140000         
H                    -4.00643000           2.53801000           2.16471000         
H                    -5.71461000           2.69721000           2.72022000         
H                    -7.65923000          -0.70810000          -1.39370000         
H                    -8.43236000          -2.23245000          -0.84962000         
H                    -6.71171000          -2.24832000          -1.38280000         
