6

C                    -1.82992000           3.84057000          -0.43175000         
C                    -1.94299000           3.51613000          -1.71867000         
H                    -2.65165000           4.32668000           0.08345000         
H                    -0.91901000           3.61593000           0.11267000         
H                    -2.85818000           3.73637000          -2.25895000         
H                    -1.12671000           3.02434000          -2.23486000         
