15

C                    -6.13414000           0.02585000          -1.55774000         
C                    -5.91189000          -1.08111000          -0.55862000         
C                    -6.88176000           1.09809000          -1.28285000         
C                    -7.21447000          -1.78146000          -0.15079000         
C                    -7.92528000          -2.41285000          -1.34566000         
H                    -5.65537000          -0.04687000          -2.53128000         
H                    -5.42693000          -0.66442000           0.35094000         
H                    -5.22032000          -1.83049000          -1.00039000         
H                    -7.36059000           1.21381000          -0.31554000         
H                    -7.00375000           1.88141000          -2.02691000         
H                    -6.97393000          -2.57959000           0.58492000         
H                    -7.89714000          -1.05578000           0.34173000         
H                    -8.21062000          -1.63392000          -2.08620000         
H                    -8.84920000          -2.92104000          -1.00340000         
H                    -7.26392000          -3.15572000          -1.83952000         
