  48
 
 Si         2.4818352100       -2.2291004900        0.3623624900
 C          3.6288184800       -1.8577323100       -1.1129866600
 H          3.0562844400       -1.7635657100       -2.0316443100
 H          4.3596464500       -2.6464867400       -1.2579988000
 H          4.1742461100       -0.9284895900       -0.9669489100
 C          3.3865883200       -2.1543257800        2.0275952000
 H          2.6851640600       -2.2217268300        2.8529396500
 H          3.9402544300       -1.2278049700        2.1427974100
 H          4.0905647300       -2.9739985000        2.1182574500
 C          1.5049248200       -3.8411483400        0.1188362900
 O         -0.7274498100       -0.7956864000        2.3396785500
 H          0.7918488100       -3.9826246600        0.9270230200
 H          2.1557951300       -4.7093120700        0.0937984500
 H          0.9452681400       -3.8164226500       -0.8120419000
 C         -1.0732180300        0.0744656900        1.5881664300
 C         -2.2566798500        0.9941777400        1.7814135500
 H         -3.0610276000        0.4722767100        2.2994540600
 H         -1.9303653700        1.8089743600        2.4323181900
 C         -0.3996910200        0.4782225600        0.2962405400
 C          0.4432930800       -0.6225235600       -0.2906339300
 O          1.4114724000       -0.9452656900        0.5399244700
 C          0.4161861000        1.8101914600        0.5106179500
 C         -1.4552376500        1.2832260200       -0.5359004100
 C         -2.6707829500        1.5135802200        0.3991116600
 C         -1.8759559800        0.7998637400       -1.9155706000
 O          0.2836782900       -1.1441634900       -1.3635121400
 C         -3.9124609500        0.7776996300       -0.1151877500
 C         -2.6802157400       -0.5044491800       -1.8738031200
 H         -0.9882201700        0.6562936600       -2.5309120000
 H         -2.4682178500        1.5983679300       -2.3691361000
 C         -3.5267371700       -0.6128714900       -0.6026278100
 H         -4.3658434100        1.3359193000       -0.9360398000
 H         -4.6529579400        0.7160992400        0.6850181700
 H         -1.9935157200       -1.3476480200       -1.9289777500
 H         -3.3245254600       -0.5415094800       -2.7542678300
 H         -4.4196798300       -1.2086645700       -0.7977258300
 H         -2.9595450900       -1.1202222200        0.1809684000
 C          1.8298880400        2.0914839100        0.0002410500
 C         -0.4541106600        2.4063670800       -0.5568556300
 H          0.2767183200        2.2045555900        1.5179420100
 C          0.2079382200        3.2227537800       -1.3581619900
 C          1.6212170100        3.3790571700       -0.8360529900
 H          1.7180088000        4.2710990500       -0.2104323800
 H          2.3397645100        3.4597712300       -1.6508648200
 H          2.1706996500        1.2883038000       -0.6535129900
 H          2.5568980200        2.2186368000        0.8000711500
 H         -0.1326521700        3.6987392400       -2.2593609700
 H         -2.8924378600        2.5840660200        0.4463668600
