12
33.3759004350195
C        0.762522       1.319786      -2.685116
C        0.390317       0.300857      -1.591344
C        1.325992       0.794349      -0.484009
O        0.681999       2.589473      -2.066386
O        1.187655       2.503976      -0.801498
O        2.559484       0.713723      -0.662576
H        2.429798       2.353007      -0.711165
H        1.793215       1.130731      -3.017393
H        0.093622       1.341092      -3.543651
H        0.914631       0.835926       0.537700
H        0.610993      -0.716952      -1.900116
H       -0.650844       0.382498      -1.281456
12
33.03407069837158
C        0.764735       1.319552      -2.687311
C        0.392160       0.301904      -1.591937
C        1.326724       0.798508      -0.483729
O        0.690894       2.589500      -2.066913
O        1.193217       2.496849      -0.801271
O        2.563440       0.720598      -0.660524
H        2.422921       2.336555      -0.709564
H        1.793728       1.126345      -3.022244
H        0.093497       1.345060      -3.543719
H        0.915353       0.836645       0.538179
H        0.615147      -0.716088      -1.897960
H       -0.649445       0.383286      -1.283511
