12
29.49345700779486
C        0.732853       1.308780      -2.715142
C        0.516473       0.488800      -1.442613
C        1.673631       0.746400      -0.476621
O        1.077448       2.663831      -2.398452
O        0.962485       2.890700      -1.026647
O        1.936004       2.150535      -0.355102
H        2.598380       0.293187      -0.851222
H        1.570800       0.907336      -3.296151
H       -0.169861       1.317376      -3.335344
H        1.450153       0.348880       0.519194
H        0.461670      -0.570000      -1.685580
H       -0.420956       0.793776      -0.972019
12
29.493425927250428
C        0.732853       1.308780      -2.715126
C        0.516477       0.488800      -1.442612
C        1.673619       0.746408      -0.476628
O        1.077474       2.663804      -2.398437
O        0.962480       2.890683      -1.026658
O        1.936002       2.150527      -0.355145
H        2.598354       0.293187      -0.851219
H        1.570781       0.907334      -3.296129
H       -0.169849       1.317382      -3.335318
H        1.450140       0.348906       0.519178
H        0.461677      -0.569980      -1.685574
H       -0.420928       0.793769      -0.972032
