12
42.11596775341059
C        0.823330       1.422542      -2.746002
C        0.608785       0.538687      -1.535075
C        1.748661       0.821019      -0.561960
O        0.983412       2.801569      -2.280848
O        0.814667       2.873786      -0.951512
O        1.760920       2.108686      -0.031386
H        2.666908       0.830887      -1.216965
H        1.759964       1.120710      -3.227079
H        0.013816       1.403934      -3.478477
H        1.812709       0.009667       0.160934
H        0.657854      -0.509217      -1.836043
H       -0.363323       0.727523      -1.075173
12
41.25077565028732
C        0.823887       1.417435      -2.746029
C        0.605917       0.535048      -1.533004
C        1.748480       0.816937      -0.567340
O        0.995148       2.798427      -2.281744
O        0.826749       2.878374      -0.953756
O        1.758793       2.110115      -0.038805
H        2.663424       0.821394      -1.219084
H        1.758561       1.108980      -3.227152
H        0.013766       1.402177      -3.477805
H        1.814451       0.008816       0.158781
H        0.649792      -0.513194      -1.832471
H       -0.364412       0.728435      -1.070667
