12
68.7468931330477
C        0.712726       1.512430      -2.737721
C        0.418761       0.742999      -1.409144
C        1.486370       0.888976      -0.265153
O        1.050220       2.868641      -2.571404
O        1.318405       2.869906      -1.249462
O        1.598356       1.684226       0.618981
H        2.591910       2.486573      -1.228163
H        1.635428       1.066711      -3.157760
H       -0.105317       1.416860      -3.454925
H        1.871909      -0.152141      -0.092264
H        0.430018      -0.286831      -1.754093
H       -0.534130       0.958538      -0.950399
12
65.0226854251996
C        0.721612       1.502524      -2.742077
C        0.422434       0.733700      -1.415142
C        1.489625       0.871423      -0.274789
O        1.072504       2.851231      -2.581501
O        1.343716       2.862415      -1.255435
O        1.621012       1.678490       0.621061
H        2.576423       2.469230      -1.248659
H        1.640348       1.053593      -3.165288
H       -0.099446       1.412194      -3.456561
H        1.867782      -0.175326      -0.102875
H        0.426574      -0.297496      -1.760445
H       -0.529935       0.952810      -0.957006
