12
11.367060441772992
C        0.728276       1.271415      -2.665182
C        0.323377       0.558742      -1.352832
C        1.379072       0.613895      -0.256855
O        1.109354       2.611186      -2.511142
O        2.111280       2.515344      -1.507046
O        1.296924       1.199149       0.761138
H        2.393109       3.271564      -0.986101
H        1.572033       0.717694      -3.118689
H       -0.120654       1.267843      -3.360695
H        2.179555      -0.140949      -0.385516
H        0.156294      -0.471212      -1.629186
H       -0.579592       0.986592      -0.924931
12
10.742224917641579
C        0.724386       1.273779      -2.661345
C        0.324847       0.562448      -1.358192
C        1.382844       0.615078      -0.261855
O        1.107210       2.607731      -2.506023
O        2.109126       2.516156      -1.501096
O        1.291569       1.211677       0.776816
H        2.385147       3.268642      -0.988718
H        1.566612       0.721133      -3.112656
H       -0.123211       1.277532      -3.354928
H        2.188954      -0.138857      -0.388693
H        0.156891      -0.472527      -1.641227
H       -0.581827       0.988828      -0.929681
