9
17.54575657177793
C       -2.093844      -0.076553       0.787833
C       -1.505827       0.111675       2.123619
C       -0.463698      -0.119928       1.100323
H       -1.596858       0.993958       2.729325
H       -1.900559      -0.802221       2.738362
H       -2.536365       0.796673       0.309614
H       -2.379450      -1.025575       0.375858
H        0.237237       0.697146       1.067534
H       -0.090025      -1.081359       0.809587
9
16.796881124461834
C       -2.092874      -0.076667       0.786387
C       -1.504850       0.109970       2.127446
C       -0.467044      -0.120305       1.100143
H       -1.596610       0.991396       2.734250
H       -1.897369      -0.795649       2.742205
H       -2.535223       0.794090       0.304955
H       -2.374705      -1.027455       0.373705
H        0.233605       0.697252       1.067559
H       -0.095033      -1.082112       0.807824
