9
16.265369474428553
C       -2.466511      -0.265956       1.137739
C       -1.223323       0.315156       1.741663
C       -0.066840       0.006255       1.210521
H       -1.297291       1.139595       2.425649
H       -2.797111      -0.775412       2.183959
H       -3.121095       0.494966       0.752091
H       -2.424825      -1.155124       0.520155
H        0.814124       0.571733       1.494966
H        0.104260      -0.844780       0.585449
9
15.570676809533325
C       -2.469544      -0.266901       1.139684
C       -1.221042       0.313506       1.743284
C       -0.063790       0.006580       1.211684
H       -1.296375       1.139242       2.425477
H       -2.799280      -0.772979       2.176952
H       -3.125622       0.493112       0.756291
H       -2.426022      -1.156544       0.521931
H        0.816889       0.572512       1.494044
H        0.106850      -0.844921       0.586901
