9
134.46610925486766
C       -2.348943      -0.161654       0.935911
C       -1.376916       0.234431       1.919225
C       -0.186218      -0.086036       1.187136
H       -1.456298       1.065431       2.586160
H       -2.226577      -0.858599       2.639561
H       -2.964352       0.633590       0.505686
H       -2.408636      -1.100212       0.431009
H        0.649481       0.560892       1.427922
H        0.038057      -0.995271       0.678365
9
133.64052223020462
C       -2.355366      -0.160914       0.933378
C       -1.374488       0.233633       1.917113
C       -0.183411      -0.084455       1.189574
H       -1.452672       1.064797       2.583572
H       -2.219862      -0.856931       2.640480
H       -2.973385       0.631308       0.504527
H       -2.414708      -1.101226       0.429120
H        0.653706       0.560829       1.432646
H        0.040182      -0.993060       0.680307
