12

C        1.819975       1.410776      -1.985554
C        1.095889       0.689982      -0.861497
C        0.621256      -0.582028      -1.266397
O        1.054864       2.322074      -2.742842
O        0.741931       3.443646      -1.919253
O       -0.047038      -1.309063      -0.509683
H        0.326185       4.058139      -2.545798
H        2.694435       1.931904      -1.570349
H        2.144577       0.691941      -2.739929
H        0.760758      -0.889500      -2.317083
H       -0.095845       0.171879      -0.177916
H        1.325814       1.003240       0.149069
