12

C        1.200936       1.541100      -1.481269
C        0.375406       0.417093      -0.925926
C        1.091042      -0.909569      -0.941996
O        0.544251       2.680613      -1.749224
O        1.792887       3.339580      -2.900196
O        2.270552      -1.058902      -1.060420
H        1.391115       4.107922      -3.309282
H        2.222256       1.693030      -1.132275
H        1.359638       1.866143      -3.000348
H        0.403016      -1.780534      -0.948752
H       -0.578731       0.333739      -1.455600
H        0.161164       0.657660       0.119311
