12

C        1.004284       1.660564      -1.210830
C        0.183258       0.644091      -0.722223
C        1.474831      -0.511173      -1.451268
O        0.542231       2.512233      -2.128082
O        1.575438       3.333331      -2.660527
O        2.069631      -0.990430      -0.528611
H        1.092793       3.975513      -3.199068
H        1.887756       1.973233      -0.667354
H        1.877469       0.612685      -2.368809
H        0.878133      -0.937662      -2.246607
H       -0.754415       0.401492      -1.194919
H        0.256554       0.429248       0.328679
