12

C        0.894393       1.563725      -1.298239
C        0.662015       0.154162      -1.593546
C        1.805891      -0.615392      -1.173526
O        1.055731       2.331360      -2.318282
O        1.440374       3.677742      -1.996158
O        2.862609      -0.156992      -0.765166
H        2.222827       3.844581      -2.545959
H        1.485211       1.780073      -0.409429
H       -1.055016       1.669840      -1.551781
H        1.669525      -1.720614      -1.251441
H        0.141828      -0.103252      -2.502167
H       -0.813345       0.419990      -1.023153
