12

C        0.969089       1.360377      -2.340396
C        0.490956       0.493995      -1.187378
C        1.379081      -0.681599      -0.924809
O        0.301799       2.322732      -2.748658
O        1.020733       3.281435      -1.192805
O        2.460440      -0.854013      -1.415825
H        1.162661       4.189908      -1.467211
H        2.151096       2.102531      -1.729606
H        1.515252       0.778964      -3.114793
H        0.942374      -1.422443      -0.227213
H       -0.536245       0.168821      -1.364029
H        0.479373       1.107652      -0.280695
