12

C        1.720784       1.386243      -2.298839
C        0.441590       0.289309      -0.846017
C        1.546788      -0.406548      -1.077508
O        0.872238       2.489453      -2.453072
O        0.846736       3.263740      -1.248072
O        2.615993      -0.844154      -1.037049
H        0.878737       4.172373      -1.563016
H        1.759294       0.961316      -3.303517
H        2.717280       1.694881      -1.960662
H        0.267742      -1.219492       0.024033
H        0.238106       0.924423      -0.002579
H       -0.413643       0.242676      -1.497922
