12

C        1.511600       1.351427      -2.743919
C        0.465302       0.440121      -2.076937
C        1.043364       0.338666      -0.683135
O        1.719761       2.362735      -1.799297
O        2.005561       1.642167      -0.623136
O        1.491472      -0.566420      -0.067706
H        1.307787       2.187655       0.548843
H        2.441599       0.802581      -2.938765
H        1.162803       1.817443      -3.664770
H        0.072210       1.536538       0.166407
H        0.397120      -0.531254      -2.562883
H       -0.516054       0.911116      -2.059752
