12
31.105860302708606
C        1.167749       1.063956      -2.498605
C        0.341611       0.567926      -1.303532
C        1.374458       0.185766      -0.339086
O        1.821090       2.229721      -1.966226
O        0.731729       3.130510      -1.766726
O        1.625454       0.246380       0.808202
H        1.179263       3.954370      -1.542644
H        1.941215       0.475545      -2.971199
H        0.514006       1.437278      -3.298450
H        1.876825      -0.595579      -1.094116
H       -0.528272      -0.078514      -1.437558
H       -0.337573       1.339814      -0.831105
12
31.05966953742245
C        1.167732       1.064046      -2.498388
C        0.341468       0.567840      -1.303496
C        1.374510       0.185278      -0.339128
O        1.820695       2.229674      -1.966076
O        0.731481       3.130773      -1.766936
O        1.625678       0.245560       0.808225
H        1.179180       3.954734      -1.543461
H        1.941461       0.475690      -2.970706
H        0.514257       1.437418      -3.298450
H        1.876353      -0.596016      -1.093845
H       -0.528460      -0.078487      -1.437608
H       -0.337391       1.339984      -0.831222
