12
0.0
C        1.332977       1.269721      -2.394451
C        0.204542       0.855218      -1.446429
C        0.517761      -0.399681      -0.679092
O        2.381024       1.924940      -1.735921
O        1.925042       3.198041      -1.262453
O        1.396078      -1.172320      -0.930747
H        2.752034       3.613280      -0.986210
H        0.943841       1.901558      -3.202193
H        1.822093       0.385159      -2.811216
H       -0.176088      -0.575467       0.167648
H       -0.713970       0.670878      -2.008764
H        0.003676       1.668163      -0.745873
12
-6.50790079816943e-05
C        1.332993       1.269721      -2.394440
C        0.204546       0.855231      -1.446417
C        0.517754      -0.399686      -0.679097
O        2.381034       1.924937      -1.735906
O        1.925053       3.198061      -1.262440
O        1.396069      -1.172348      -0.930780
H        2.751956       3.613262      -0.986273
H        0.943865       1.901560      -3.202198
H        1.822115       0.385144      -2.811197
H       -0.176091      -0.575483       0.167646
H       -0.713982       0.670913      -2.008757
H        0.003696       1.668180      -0.745842
