12
79.50636035440402
C        1.197908       1.271167      -2.732534
C        0.075993       0.916895      -1.707240
C        0.811730       0.373901      -0.494173
O        2.387191       1.197998      -2.086676
O        1.658791       2.478706      -0.691786
O        1.902984      -0.120329      -0.534526
H        2.460177       2.707182      -0.215748
H        1.001522       2.291315      -3.103442
H        1.274471       0.578493      -3.585265
H        0.160973       0.043936       0.339708
H       -0.689306       0.220129      -2.047636
H       -0.398528       1.855072      -1.427729
12
79.64994343263788
C        1.200488       1.281868      -2.729926
C        0.077234       0.918863      -1.706011
C        0.815272       0.381885      -0.491753
O        2.389671       1.203684      -2.086865
O        1.654169       2.468172      -0.676590
O        1.908364      -0.108520      -0.531666
H        2.453279       2.695418      -0.196079
H        1.002179       2.303770      -3.094469
H        1.274310       0.592492      -3.585652
H        0.165721       0.050161       0.342076
H       -0.683171       0.217075      -2.046630
H       -0.403250       1.854726      -1.428236
