12
24.94911031880838
C        2.171686       1.963805      -0.459526
C        1.017436       2.019729       0.184397
C        0.475867      -0.634384      -3.276013
O        0.798291       0.200394      -2.291341
O       -0.105017       1.279359      -2.280873
O        1.005700      -1.681025      -3.458334
H        0.428837       1.975358      -1.851739
H        2.683287       2.790009      -0.943401
H        2.799428       1.085980      -0.459263
H       -0.350474      -0.218215      -3.887912
H        0.786203       1.192359       0.837605
H        0.354258       2.866633       0.204113
12
24.907128730194017
C        2.171848       1.964099      -0.459938
C        1.017808       2.019584       0.184292
C        0.475946      -0.634927      -3.275907
O        0.798072       0.200171      -2.291314
O       -0.105189       1.279175      -2.280959
O        1.006302      -1.681479      -3.457471
H        0.428459       1.975027      -1.851454
H        2.682096       2.790527      -0.944778
H        2.799960       1.086588      -0.459406
H       -0.350451      -0.219272      -3.887965
H        0.786336       1.191918       0.837016
H        0.354443       2.866336       0.204111
