12
32.68484477738275
C        1.785928       1.589804      -1.281870
C        0.806915       0.779155      -0.508376
C        0.659801      -0.592684      -1.763061
O        1.190363       1.920680      -2.536397
O        0.117058       2.850372      -2.364670
O        0.896527      -1.701706      -1.421756
H        0.259011       3.473397      -3.096105
H        2.382529       2.417862      -0.853805
H        2.561916       0.915359      -1.639287
H        0.346881      -0.301534      -2.788649
H        1.247235       0.260281       0.338250
H       -0.089090       1.303150      -0.235757
12
32.60187418208989
C        1.785686       1.589467      -1.281979
C        0.806610       0.778659      -0.508795
C        0.659755      -0.592340      -1.762895
O        1.190278       1.920533      -2.536423
O        0.117001       2.850360      -2.364929
O        0.896649      -1.701336      -1.421462
H        0.258985       3.473230      -3.096517
H        2.382468       2.417273      -0.853702
H        2.561667       0.915058      -1.639516
H        0.346746      -0.301226      -2.788504
H        1.247107       0.259555       0.337627
H       -0.089388       1.302548      -0.236063
