12
162.4723131497194
C        1.902162       1.656074      -0.911280
C        0.785477       1.476441      -0.048356
C        0.614758      -0.583062      -2.589958
O        1.088701       1.146695      -2.237744
O       -0.064673       1.998131      -2.314050
O        1.041100      -1.697836      -2.619596
H        0.199855       2.748266      -2.821904
H        2.650619       2.439805      -0.955782
H        2.594609       0.823347      -1.057644
H        0.110504      -0.167050      -3.445177
H        1.226061       0.960347       0.798161
H       -0.023531       2.104158       0.205840
12
162.45857070479542
C        1.902112       1.656251      -0.911127
C        0.785418       1.476526      -0.048176
C        0.614953      -0.582963      -2.590183
O        1.088659       1.146595      -2.237714
O       -0.064769       1.997846      -2.314098
O        1.041482      -1.697645      -2.619804
H        0.199734       2.748020      -2.821919
H        2.650514       2.440051      -0.955715
H        2.594626       0.823551      -1.057456
H        0.110631      -0.167007      -3.445438
H        1.226064       0.960460       0.798324
H       -0.023674       2.104146       0.206035
12
162.40168716552398
C        1.902044       1.656112      -0.911263
C        0.785548       1.476378      -0.047944
C        0.614521      -0.582608      -2.590166
O        1.088558       1.147012      -2.237898
O       -0.064691       1.998327      -2.314163
O        1.041038      -1.697278      -2.619604
H        0.199830       2.748405      -2.822100
H        2.650502       2.439885      -0.955895
H        2.594419       0.823332      -1.057759
H        0.110142      -0.166638      -3.445409
H        1.226297       0.960131       0.798403
H       -0.023415       2.104043       0.206519
