12
101.82980444998611
C        1.772847       1.490777      -1.228826
C        0.697957       0.927643      -0.306653
C        0.614662      -0.688124      -2.172616
O        1.027304       1.558428      -2.448031
O        0.003442       2.511503      -2.500672
O        1.252807      -1.582780      -1.784325
H        0.392747       3.222717      -3.037943
H        2.441105       2.324643      -1.092595
H        2.450140       0.646312      -1.480538
H        0.049847      -0.466849      -3.062382
H        1.134151       0.245916       0.410185
H       -0.136139       1.483872       0.051738
12
101.75910842945814
C        1.772661       1.491192      -1.228702
C        0.697929       0.927378      -0.306719
C        0.615376      -0.687815      -2.172279
O        1.027592       1.558595      -2.448096
O        0.003237       2.511288      -2.500953
O        1.253681      -1.582466      -1.784097
H        0.392275       3.222770      -3.037955
H        2.440277       2.325505      -1.092148
H        2.450531       0.647202      -1.480235
H        0.050364      -0.466709      -3.061903
H        1.134208       0.245618       0.410046
H       -0.136466       1.483239       0.051464
