52

C                     5.09084000          -0.86868000          -0.49196000         
C                     3.93224000          -1.82553000          -0.21247000         
H                     5.92986000          -1.41088000          -0.97913000         
H                     4.71467000          -0.11586000          -1.21445000         
H                     4.22422000          -2.59937000           0.52969000         
H                     3.62957000          -2.32776000          -1.15556000         
C                     5.61850000          -0.20458000           0.80029000         
C                     6.53691000           0.98299000           0.49833000         
C                     5.75895000           2.11347000          -0.13868000         
C                     6.34700000           3.25856000          -0.47472000         
Ga                    2.35143000          -0.75325000           0.41878000         
H                     4.79556000           0.18742000           1.43335000         
H                     6.15746000          -0.97331000           1.39636000         
H                     7.37070000           0.65951000          -0.16123000         
H                     6.96032000           1.35376000           1.45639000         
H                     4.69278000           2.00919000          -0.32492000         
H                     5.75820000           4.05257000          -0.92390000         
H                     7.40814000           3.41486000          -0.30352000         
O                     1.17720000          -1.70140000           1.26200000         
O                     1.73120000           0.33700000          -0.81360000         
Si                   -0.22510000           2.56340000           1.39940000         
Si                   -2.17480000           0.05790000           2.31020000         
Si                   -0.26150000          -2.43780000           1.55980000         
Si                   -1.52250000           2.34950000          -1.57560000         
Si                   -3.55360000           0.01100000          -0.64020000         
Si                   -1.40790000          -2.26490000          -1.43520000         
Si                    0.75030000           0.11470000          -2.14460000         
O                    -1.11320000           1.31450000           2.07800000         
O                    -1.35260000          -1.40060000           2.33390000         
O                     1.37990000           2.12110000           1.11580000         
O                    -0.93370000           2.88230000          -0.10040000         
O                    -3.22290000           0.02100000           0.99680000         
O                    -1.00080000          -2.84000000           0.08490000         
O                    -2.85890000           1.37360000          -1.33570000         
O                    -2.80740000          -1.34310000          -1.29140000         
O                    -0.17290000          -1.27380000          -1.96160000         
O                    -0.31380000           1.40960000          -2.27580000         
O                    -0.03700000          -3.82240000           2.49720000         
O                    -2.99700000           0.34690000           3.74970000         
O                    -5.21000000          -0.00840000          -0.91180000         
O                    -1.60630000          -3.49590000          -2.56340000         
O                    -0.26710000           3.90070000           2.41820000         
O                    -1.98480000           3.62650000          -2.56380000         
O                     1.73260000          -0.02620000          -3.51650000         
H                     1.64410000           1.78210000           0.22280000         
H                    -0.84730000           3.96950000           3.19150000         
H                    -3.70000000          -0.21510000           4.10730000         
H                    -0.76120000          -4.31670000           2.90920000         
H                    -2.32810000          -4.14160000          -2.55230000         
H                     1.38910000          -0.05420000          -4.42310000         
H                    -5.66460000           0.58260000          -1.53040000         
H                    -1.53970000           4.48630000          -2.59440000         
