52

C                     4.29550000          -2.31805000          -2.10711000         
C                     3.72551000          -3.29504000          -1.40417000         
H                     5.30641000          -1.99738000          -1.87894000         
H                     3.74617000          -1.82763000          -2.90358000         
H                     4.26648000          -3.77451000          -0.59518000         
H                     2.70682000          -3.60144000          -1.62166000         
C                     5.52681000           1.11777000           2.17693000         
C                     6.18952000           0.19281000           1.02893000         
C                     6.01147000           1.40045000           0.19115000         
C                     5.48209000           2.12775000           1.09602000         
Ga                    2.34323000          -0.83480000           0.31069000         
H                     4.50118000           0.87532000           2.51699000         
H                     6.21276000           1.43502000           2.98203000         
H                     5.57613000          -0.63941000           0.61715000         
H                     7.26744000          -0.02616000           1.16331000         
H                     6.24683000           1.62794000          -0.84461000         
H                     3.46218000          -0.23941000           1.12851000         
H                     5.13226000           3.15588000           1.05216000         
O                     1.17720000          -1.70140000           1.26200000         
O                     1.73120000           0.33700000          -0.81360000         
Si                   -0.22510000           2.56340000           1.39940000         
Si                   -2.17480000           0.05790000           2.31020000         
Si                   -0.26150000          -2.43780000           1.55980000         
Si                   -1.52250000           2.34950000          -1.57560000         
Si                   -3.55360000           0.01100000          -0.64020000         
Si                   -1.40790000          -2.26490000          -1.43520000         
Si                    0.75030000           0.11470000          -2.14460000         
O                    -1.11320000           1.31450000           2.07800000         
O                    -1.35260000          -1.40060000           2.33390000         
O                     1.37990000           2.12110000           1.11580000         
O                    -0.93370000           2.88230000          -0.10040000         
O                    -3.22290000           0.02100000           0.99680000         
O                    -1.00080000          -2.84000000           0.08490000         
O                    -2.85890000           1.37360000          -1.33570000         
O                    -2.80740000          -1.34310000          -1.29140000         
O                    -0.17290000          -1.27380000          -1.96160000         
O                    -0.31380000           1.40960000          -2.27580000         
O                    -0.03700000          -3.82240000           2.49720000         
O                    -2.99700000           0.34690000           3.74970000         
O                    -5.21000000          -0.00840000          -0.91180000         
O                    -1.60630000          -3.49590000          -2.56340000         
O                    -0.26710000           3.90070000           2.41820000         
O                    -1.98480000           3.62650000          -2.56380000         
O                     1.73260000          -0.02620000          -3.51650000         
H                     1.64410000           1.78210000           0.22280000         
H                    -0.84730000           3.96950000           3.19150000         
H                    -3.70000000          -0.21510000           4.10730000         
H                    -0.76120000          -4.31670000           2.90920000         
H                    -2.32810000          -4.14160000          -2.55230000         
H                     1.38910000          -0.05420000          -4.42310000         
H                    -5.66460000           0.58260000          -1.53040000         
H                    -1.53970000           4.48630000          -2.59440000         
