52

C                     4.35049000          -2.48405000          -2.21896000         
C                     3.75948000          -3.43865000          -1.50710000         
H                     5.36877000          -2.18406000          -1.99451000         
H                     3.81689000          -1.99302000          -3.02721000         
H                     4.29028000          -3.92283000          -0.69378000         
H                     2.73577000          -3.73303000          -1.72802000         
C                     4.95094000          -0.01420000           3.20349000         
C                     5.71289000          -0.73878000           2.10128000         
C                     5.46056000          -0.11054000           0.78057000         
C                     4.29062000          -0.08596000           0.13160000         
Ga                    2.39554000          -0.74726000           0.34268000         
H                     5.23148000           1.06146000           3.21729000         
H                     5.21320000          -0.45999000           4.18499000         
H                     5.45564000          -1.81909000           2.06987000         
H                     6.79934000          -0.63840000           2.32059000         
H                     6.30314000           0.38006000           0.29352000         
H                     3.85444000          -0.10115000           3.04664000         
H                     4.32259000           0.45627000          -0.80852000         
O                     1.17720000          -1.70140000           1.26200000         
O                     1.73120000           0.33700000          -0.81360000         
Si                   -0.22510000           2.56340000           1.39940000         
Si                   -2.17480000           0.05790000           2.31020000         
Si                   -0.26150000          -2.43780000           1.55980000         
Si                   -1.52250000           2.34950000          -1.57560000         
Si                   -3.55360000           0.01100000          -0.64020000         
Si                   -1.40790000          -2.26490000          -1.43520000         
Si                    0.75030000           0.11470000          -2.14460000         
O                    -1.11320000           1.31450000           2.07800000         
O                    -1.35260000          -1.40060000           2.33390000         
O                     1.37990000           2.12110000           1.11580000         
O                    -0.93370000           2.88230000          -0.10040000         
O                    -3.22290000           0.02100000           0.99680000         
O                    -1.00080000          -2.84000000           0.08490000         
O                    -2.85890000           1.37360000          -1.33570000         
O                    -2.80740000          -1.34310000          -1.29140000         
O                    -0.17290000          -1.27380000          -1.96160000         
O                    -0.31380000           1.40960000          -2.27580000         
O                    -0.03700000          -3.82240000           2.49720000         
O                    -2.99700000           0.34690000           3.74970000         
O                    -5.21000000          -0.00840000          -0.91180000         
O                    -1.60630000          -3.49590000          -2.56340000         
O                    -0.26710000           3.90070000           2.41820000         
O                    -1.98480000           3.62650000          -2.56380000         
O                     1.73260000          -0.02620000          -3.51650000         
H                     1.64410000           1.78210000           0.22280000         
H                    -0.84730000           3.96950000           3.19150000         
H                    -3.70000000          -0.21510000           4.10730000         
H                    -0.76120000          -4.31670000           2.90920000         
H                    -2.32810000          -4.14160000          -2.55230000         
H                     1.38910000          -0.05420000          -4.42310000         
H                    -5.66460000           0.58260000          -1.53040000         
H                    -1.53970000           4.48630000          -2.59440000         
