9
0.0
C       -2.512878      -0.051353       1.298450
C       -1.107205      -0.079817       1.816901
C       -0.036737       0.001763       1.049075
H       -0.994297      -0.173563       2.888886
H       -3.231706      -0.132329       2.109129
H       -2.701714       0.876470       0.759597
H       -2.679824      -0.874120       0.604145
H       -0.115094       0.095974      -0.022203
H        0.960856      -0.021525       1.453030
9
-1.7243960428459104e-05
C       -2.512858      -0.051353       1.298452
C       -1.107220      -0.079817       1.816910
C       -0.036751       0.001764       1.049069
H       -0.994308      -0.173563       2.888879
H       -3.231693      -0.132327       2.109102
H       -2.701680       0.876448       0.759609
H       -2.679790      -0.874100       0.604160
H       -0.115129       0.095971      -0.022186
H        0.960828      -0.021523       1.453015
