9
181.3699260377225
C       -2.504412       0.276029       1.818998
C       -1.391008       0.181255       0.803367
C       -0.257123       0.162396      -0.096583
H       -1.035992      -0.585608       1.800056
H       -1.152854      -1.351991       2.618171
H       -2.989690       1.182905       2.204871
H       -3.209898      -0.604850       1.570081
H       -0.066053       0.266828      -1.365525
H        0.828709      -0.234187       0.507437
9
181.30201878852313
C       -2.504308       0.276062       1.818961
C       -1.390980       0.181288       0.803406
C       -0.257221       0.162384      -0.096502
H       -1.035908      -0.585674       1.800116
H       -1.152696      -1.351975       2.618113
H       -2.989557       1.182896       2.204758
H       -3.209830      -0.604885       1.570039
H       -0.066481       0.266813      -1.365399
H        0.828665      -0.234121       0.507352
