9
51.09179614163622
C       -2.305872       0.008397       0.654771
C       -1.011938       0.023549       0.665537
C        0.281196       0.038019       0.686261
H       -2.508191      -0.227165       3.278524
H       -2.823553      -0.294257       3.989296
H       -2.884837       0.915523       0.726094
H       -2.861876      -0.911407       0.565446
H        0.862011       0.126378      -0.217639
H        0.834460      -0.037537       1.608718
9
51.09177476866353
C       -2.305883       0.008399       0.654754
C       -1.011952       0.023550       0.665533
C        0.281178       0.038017       0.686274
H       -2.508157      -0.227168       3.278561
H       -2.823475      -0.294257       3.989291
H       -2.884849       0.915526       0.726078
H       -2.861893      -0.911403       0.565417
H        0.861993       0.126366      -0.217626
H        0.834438      -0.037531       1.608728
