54

C                     5.59618000          -2.28001000          -0.02427000         
C                     5.08768000          -3.50268000           0.15073000         
H                     2.93254000          -2.02704000          -0.67080000         
H                     5.71689000          -1.90569000          -1.03611000         
H                     4.94375000          -3.91121000           1.14648000         
H                     4.80208000          -4.09952000          -0.70979000         
C                     5.99101000          -1.43111000           1.15692000         
C                     6.54449000          -0.05772000           0.74487000         
C                     5.48740000           0.84051000           0.08363000         
C                     6.07344000           2.19699000          -0.29257000         
Ga                    2.29916000          -0.93732000           0.31748000         
H                     5.11872000          -1.28618000           1.83135000         
H                     6.77952000          -1.97420000           1.72059000         
H                     7.40931000          -0.20204000           0.06069000         
H                     6.90819000           0.45401000           1.66313000         
H                     5.08993000           0.36364000          -0.83726000         
H                     4.64594000           1.00471000           0.79363000         
H                     5.28608000           2.82789000          -0.75744000         
H                     6.45696000           2.71713000           0.61104000         
H                     6.90269000           2.06917000          -1.02065000         
O                     1.08770000          -1.80470000           1.22140000         
O                     1.67680000           0.28240000          -0.76780000         
Si                   -0.18910000           2.52570000           1.45650000         
Si                   -2.20450000           0.04820000           2.29670000         
Si                   -0.37930000          -2.49560000           1.48710000         
Si                   -1.48520000           2.41820000          -1.52480000         
Si                   -3.58550000           0.12010000          -0.65520000         
Si                   -1.51340000          -2.20240000          -1.50620000         
Si                    0.72220000           0.12590000          -2.12600000         
O                    -1.09950000           1.27420000           2.10140000         
O                    -1.43520000          -1.43870000           2.28490000         
O                     1.40800000           2.06640000           1.15140000         
O                    -0.89920000           2.89960000          -0.03040000         
O                    -3.24750000           0.08310000           0.97970000         
O                    -1.12770000          -2.82760000          -0.00070000         
O                    -2.85290000           1.47760000          -1.32190000         
O                    -2.88410000          -1.24120000          -1.34000000         
O                    -0.24890000          -1.23700000          -2.01090000         
O                    -0.29690000           1.45890000          -2.23350000         
O                    -0.21440000          -3.91510000           2.38410000         
O                    -3.02050000           0.32880000           3.74170000         
O                    -5.24280000           0.15760000          -0.92020000         
O                    -1.74920000          -3.39810000          -2.66480000         
O                    -0.19530000           3.83320000           2.51440000         
O                    -1.89900000           3.73090000          -2.48750000         
O                     1.73100000          -0.00740000          -3.47980000         
H                     1.63520000           1.68970000           0.26010000         
H                    -0.78750000           3.90300000           3.27850000         
H                    -3.72880000          -0.22990000           4.09380000         
H                    -0.96200000          -4.40940000           2.75200000         
H                    -2.49150000          -4.02020000          -2.67010000         
H                     1.40280000          -0.03520000          -4.39210000         
H                    -5.68060000           0.77730000          -1.52260000         
H                    -1.42440000           4.57520000          -2.49850000         
