12

C                    -0.23869000           0.02514000           0.23891000         
N                     1.00842000          -0.28785000          -0.45198000         
O                    -1.31463000          -0.44061000          -0.52777000         
O                    -0.35819000           1.41352000           0.41153000         
H                    -2.12453000          -0.34937000           0.03905000         
H                     0.24116000           1.65858000           1.16384000         
H                    -0.24543000          -0.49894000           1.22525000         
H                     1.81471000           0.04329000           0.12590000         
H                     1.03042000           0.21304000          -1.37003000         
C                     0.03637000          -3.51732000          -1.06790000         
N                    -1.00769000          -3.70382000          -1.53034000         
H                     0.99110000          -3.34496000          -0.64466000         
12
Properties=species:S:1:pos:R:3 energy:=T -21.234464012558=T gnorm:=T 0.000628162512=T xtb:=T 6.2.3=T (830e466)=T pbc="F F F"
C        0.29000689      -0.56764023       0.27870388
N        1.51394756       0.02461707      -0.22913073
O       -2.34236225      -1.46932311      -0.82620477
O       -0.72648408       0.40716843       0.22036369
H       -2.16454089      -0.61510186      -0.38242769
H       -0.33863334       1.24826594       0.48885429
H        0.48083713      -0.84111354       1.33492130
H        2.31633388      -0.56051016      -0.03620192
H        1.44954920       0.15986652      -1.23348009
C       -0.11671100      -1.83255194      -0.46211951
N       -1.22345367      -2.21068723      -0.92884276
H        0.69453057      -2.53228990      -0.61263568
