8

C                     11.48854000         -1.75297000           1.51036000         
N                     10.32022000         -1.37178000           1.14657000         
H                     9.91054000          -0.50402000           1.52109000         
H                     12.06423000         -1.16667000           2.21907000         
H                     11.90781000         -2.66825000           1.10845000         
C                     11.38024000          1.33615000           3.56488000         
N                     12.43086000          1.18809000           4.02525000         
H                     10.41887000          1.46914000           3.14192000         
8
Properties=species:S:1:pos:R:3 energy:=T -12.082309352463=T gnorm:=T 0.000204747805=T xtb:=T 6.2.3=T (830e466)=T pbc="F F F"
C       11.09822677      -0.99370979       1.82094284
N       10.05429836      -1.17027235       1.14223661
H        9.34212623      -0.44739206       1.25591713
H       13.13819533      -0.42019302       3.30349155
H       11.87990767      -1.74582768       1.72439924
C       11.38210046       0.12613192       2.73845516
N       12.42602320       0.30268728       3.41717198
H       10.60043198       0.87826569       2.83497548
