9

C                    -4.63037000           2.78115000          -0.48551000         
O                    -4.25732000           2.86807000          -1.77902000         
N                    -4.94328000           1.64649000           0.02577000         
H                    -4.21545000           2.08665000          -2.34864000         
H                    -5.22617000           1.57706000           1.01392000         
H                    -4.66140000           3.67996000           0.12264000         
C                    -1.46481000           1.69953000           0.29615000         
N                    -1.39871000           0.67485000          -0.23713000         
H                    -1.52859000           2.63724000           0.78302000         
9
Properties=species:S:1:pos:R:3 energy:=T -16.111409813361=T gnorm:=T 0.000606708211=T xtb:=T 6.2.3=T (830e466)=T pbc="F F F"
C       -4.18470875       1.77298304      -0.78733762
O       -4.45943102       2.24476468      -2.00740772
N       -5.08376133       1.74480069       0.09608247
H       -3.69053828       2.21611598      -2.59146089
H       -4.80551057       1.37566490       0.99750581
H       -3.06980486       4.23383796       1.21977210
C       -2.83629887       1.30466060      -0.54171365
N       -1.80203082       0.90672273      -0.24957014
H       -2.39401551       3.85144942       1.25532964
