9

N                    -2.13461000          -0.75683000           0.56541000         
C                    -1.98691000           0.58480000           0.58577000         
O                    -2.83537000           1.29019000           1.10767000         
H                    -1.41595000          -1.34786000           0.12384000         
H                    -2.96236000          -1.20224000           0.98849000         
H                    -1.11130000           1.04228000           0.13718000         
C                     1.43512000           0.26508000          -1.29770000         
N                     1.21639000          -0.87061000          -1.25884000         
H                     1.63438000           1.30389000          -1.33280000         
9
Properties=species:S:1:pos:R:3 energy:=T -16.203322260135=T gnorm:=T 0.000480623459=T xtb:=T 6.2.3=T (830e466)=T pbc="F F F"
N       -2.02144580      -1.15508398       0.47519561
C       -1.46202450       0.05116650       0.26338998
O       -1.93414507       1.10735499       0.60164863
H       -1.55029337      -1.98198104       0.15500132
H       -2.90424701      -1.22443181       0.95075459
H        0.11222070       1.92339356      -0.45835435
C        0.44033073       0.91247326      -0.71037109
N       -0.22010958      -0.11911687      -0.42649489
H        1.37910391       0.79492539      -1.23174981
