9

N                    -2.58550000          -1.01078000           0.72851000         
C                    -1.52863000          -0.25035000           0.37299000         
O                    -1.16433000           0.67065000           1.08645000         
H                    -2.88840000          -1.78663000           0.12251000         
H                    -3.09757000          -0.82525000           1.60364000         
H                    -0.99832000          -0.45641000          -0.55098000         
C                     1.36576000           1.34180000          -1.22140000         
N                     1.44745000           0.67788000          -2.16556000         
H                     1.28924000           1.94788000          -0.35707000         
9
Properties=species:S:1:pos:R:3 energy:=T -16.184242465254=T gnorm:=T 0.000990323195=T xtb:=T 6.2.3=T (830e466)=T pbc="F F F"
N       -1.92048166      -0.58170207       0.44228183
C       -1.04574429       0.43236308       0.63629970
O       -1.08637400       1.15717947       1.60654930
H       -1.88820608      -1.18378045      -0.36181262
H       -2.63566038      -0.74197879       1.13211864
H       -0.45062683      -0.80383340      -1.67524793
C        0.00101774       0.61741042      -0.43619650
N        0.18926572      -0.03011902      -1.49279784
H        0.67650978       1.44325075      -0.23210457
