12

C                     1.23371000           1.36308000          -2.32335000         
C                     0.56776000           0.69842000          -1.11619000         
C                     1.28157000          -0.56301000          -0.73176000         
O                     0.58441000           2.57640000          -2.62443000         
O                     1.23890000           3.52915000          -1.98152000         
O                     2.44743000          -0.52706000          -0.37547000         
H                     0.70313000           3.71088000          -1.16680000         
H                     2.32473000           1.51592000          -2.14443000         
H                     1.15657000           0.69359000          -3.20724000         
H                     0.75788000          -1.51305000          -0.75176000         
H                    -0.49042000           0.46691000          -1.36655000         
H                     0.58323000           1.38847000          -0.24630000         
12
Properties=species:S:1:pos:R:3 energy:=T -21.629659048769=T gnorm:=T 0.000599158315=T xtb:=T 6.2.3=T (830e466)=T pbc="F F F"
C        0.95633906       1.16181857      -2.48277132
C        0.90702423       1.08295967      -0.93809529
C        1.78439459      -0.06568651      -0.48196099
O        0.27516400       2.30164110      -2.93529365
O        1.31224002       2.29589239      -0.37372421
O        2.85073098       0.03060353       0.04277452
H        1.22761803       2.98528714      -1.04877900
H        1.99339184       1.29260350      -2.80181793
H        0.55492961       0.24211827      -2.92471321
H        1.32663421      -1.05236459      -0.70635592
H       -0.66799432       2.20929877      -2.75549292
H       -0.13157225       0.85552815      -0.62957009
