12

C                     1.27032000           1.37105000          -2.22733000         
C                     0.53404000           0.63769000          -1.09970000         
C                     1.29639000          -0.57225000          -0.65195000         
O                     0.52707000           2.47796000          -2.67833000         
O                     0.59669000           3.39478000          -1.72871000         
O                     2.41962000          -0.46031000          -0.18494000         
H                     1.27472000           4.04517000          -2.04491000         
H                     2.29092000           1.68743000          -1.91023000         
H                     1.40241000           0.67597000          -3.08467000         
H                     0.84571000          -1.55568000          -0.73121000         
H                    -0.46732000           0.32217000          -1.46386000         
H                     0.39842000           1.31563000          -0.22996000         
12
Properties=species:S:1:pos:R:3 energy:=T -21.667290658558=T gnorm:=T 0.000775589578=T xtb:=T 6.2.3=T (830e466)=T pbc="F F F"
C        1.24423326       1.14303198      -2.23431670
C        0.22891108       1.98152757      -1.44171541
C        1.63997415      -0.75102511      -0.91114783
O        1.05963818      -0.25127209      -1.98877090
O        0.35226292       3.34877711      -1.72154750
O        2.31877347      -0.16083154      -0.12444534
H        1.20330633       3.66489510      -1.39668115
H        2.26491994       1.42623537      -1.95061484
H        1.10001426       1.28599936      -3.30660538
H        1.40758649      -1.82734593      -0.85387933
H       -0.78517285       1.70065179      -1.73689605
H        0.35454277       1.77896640      -0.36917958
