12

C                     1.30435000           1.49333000          -2.12545000         
C                     0.51159000           0.55547000          -1.20527000         
C                     1.24961000          -0.71527000          -0.87950000         
O                     0.55091000           2.64308000          -2.42688000         
O                     0.68900000           3.46665000          -1.40305000         
O                     2.36664000          -0.94159000          -1.31953000         
H                     1.28834000           4.18462000          -1.73289000         
H                     2.28867000           1.76265000          -1.67494000         
H                     1.52507000           0.97047000          -3.08067000         
H                     0.77564000          -1.44854000          -0.23558000         
H                    -0.44692000           0.28849000          -1.69955000         
H                     0.28612000           1.08034000          -0.25271000         
12
Properties=species:S:1:pos:R:3 energy:=T -21.561980177940=T gnorm:=T 0.000422076437=T xtb:=T 6.2.3=T (830e466)=T pbc="F F F"
C        1.88396519       2.44454300      -2.67947377
C        0.00043465       0.57958564      -0.66098690
C        1.12264107      -0.43570615      -0.66952929
O        0.57912245       1.98847257      -2.41598325
O        0.36038394       1.88653614      -1.01005823
O        2.26267203      -0.23273198      -0.96282822
H        2.05074404       3.43257509      -2.24276156
H        2.63487543       1.74066515      -2.31089225
H        1.92374753       2.50524584      -3.76565398
H        0.76580323      -1.44168813      -0.36781217
H       -0.80644572       0.20781246      -1.30937065
H       -0.38892384       0.66439038       0.35933027
