12

C                     1.03655000           1.41755000          -2.61702000         
C                     0.22217000           0.69388000          -1.51725000         
C                     1.09636000           0.04364000          -0.48392000         
O                     1.89120000           2.47947000          -2.21690000         
O                     1.64287000           2.81402000          -0.96441000         
O                     1.90380000          -0.81196000          -0.80170000         
H                     2.47454000           2.57426000          -0.47888000         
H                     1.66679000           0.66040000          -3.12982000         
H                     0.31646000           1.81704000          -3.36262000         
H                     1.00223000           0.33352000           0.55861000         
H                    -0.46742000           1.41341000          -1.02574000         
H                    -0.39655000          -0.09562000          -1.99614000         
12
Properties=species:S:1:pos:R:3 energy:=T -21.517060541841=T gnorm:=T 0.000237192337=T xtb:=T 6.2.3=T (830e466)=T pbc="F F F"
C        0.88025713       1.33090204      -2.58674730
C       -0.52109493       1.32064266      -2.00565155
C        2.61418318       0.52563590      -0.19479108
O        1.30684892       2.07745927      -1.43332898
O       -0.00837679       2.05138978      -0.87801355
O        2.50996161      -0.41480420      -0.93411514
H        3.43117905       1.25792959      -0.27980329
H        1.38979702       0.36308677      -2.63128089
H        1.03461609       1.89830765      -3.50548306
H        1.94367606       0.68504267       0.66299662
H       -1.27750431       1.89647944      -2.54307270
H       -0.91454304       0.34753845      -1.70649909
