12

C                     1.27694000           1.28353000          -2.54522000         
C                     0.20828000           0.89836000          -1.50730000         
C                     0.68038000          -0.11236000          -0.49595000         
O                     2.44624000           1.78626000          -1.94188000         
O                     2.13992000           2.96688000          -1.43648000         
O                     1.81514000          -0.56500000          -0.51798000         
H                     2.20366000           2.84167000          -0.45427000         
H                     0.86589000           2.01800000          -3.27478000         
H                     1.55271000           0.37985000          -3.12987000         
H                    -0.00626000          -0.44347000           0.27546000         
H                    -0.66943000           0.47711000          -2.04232000         
H                    -0.12447000           1.80867000          -0.96522000         
12
Properties=species:S:1:pos:R:3 energy:=T -21.604377268964=T gnorm:=T 0.000493319510=T xtb:=T 6.2.3=T (830e466)=T pbc="F F F"
C        1.19518716       1.02985271      -2.82656640
C        0.13144931       0.97664489      -1.73116800
C        1.05911294       1.01607090      -0.51454560
O        2.26733903       0.26474768      -2.32931060
O        1.32084741       2.35063381      -0.19742322
O        2.21138508       0.32478798      -0.89321029
H        2.10922815       2.39421655       0.35652921
H        1.50882577       2.06767679      -3.00294653
H        0.89043238       0.56208833      -3.76280090
H        0.65915510       0.48293393       0.36281108
H       -0.42401839       0.04112160      -1.75666252
H       -0.53994392       1.82872484      -1.74051624
