12

C                     1.21074000           1.51041000          -2.13436000         
C                     0.19000000           0.49853000          -1.61258000         
C                     0.82143000          -0.50267000          -0.69041000         
O                     1.78223000           2.20047000          -1.05120000         
O                     2.42630000           3.23031000          -1.56649000         
O                     1.70832000          -1.24170000          -1.08889000         
H                     1.97601000           4.02443000          -1.17929000         
H                     0.66861000           2.21252000          -2.80954000         
H                     2.00324000           0.97949000          -2.70843000         
H                     0.48454000          -0.57729000           0.33836000         
H                    -0.27311000          -0.03757000          -2.46872000         
H                    -0.60930000           1.04267000          -1.06434000         
12
Properties=species:S:1:pos:R:3 energy:=T -21.591014499932=T gnorm:=T 0.000955422686=T xtb:=T 6.2.3=T (830e466)=T pbc="F F F"
C        0.95632096       1.54291417      -2.33565280
C       -0.25611408       2.44868096      -2.19362496
C        2.40108900      -0.65910927      -0.00735763
O        1.12701118       0.92022747      -1.07404310
O        2.25959342       0.06051153      -1.12073117
O        3.29459970      -1.43052328       0.13112164
H       -0.08140674       3.18805165      -1.41722281
H        1.85355659       2.12033248      -2.58757966
H        0.79255199       0.78024745      -3.10630007
H        1.61111226      -0.45025668       0.73849482
H       -0.43823401       2.95542989      -3.13636790
H       -1.13107027       1.86309363      -1.92662637
