12

C                     1.37830000           1.47856000          -2.11090000         
C                     0.53440000           0.54924000          -1.22672000         
C                     1.26445000          -0.69798000          -0.80665000         
O                     0.62109000           2.59215000          -2.51835000         
O                     0.58701000           3.42345000          -1.49260000         
O                     2.41441000          -0.91843000          -1.15290000         
H                     0.98519000           4.26371000          -1.83526000         
H                     2.31330000           1.79520000          -1.59195000         
H                     1.69070000           0.92841000          -3.02454000         
H                     0.75142000          -1.42000000          -0.17953000         
H                    -0.37729000           0.24925000          -1.78589000         
H                     0.22590000           1.09595000          -0.31051000         
12
Properties=species:S:1:pos:R:3 energy:=T -21.579049196706=T gnorm:=T 0.000396480357=T xtb:=T 6.2.3=T (830e466)=T pbc="F F F"
C        1.81651790       1.33581345      -2.31226808
C        0.18544288       0.08932911      -0.78900895
C        1.57559133       0.18315311      -1.33375014
O        0.78440007       2.28017241      -2.40798815
O        0.71864131       3.06247358      -1.21877614
O        2.47050224      -0.57278677      -1.05798595
H        0.64249388       3.96670760      -1.55164124
H        2.77510108       1.81315429      -2.06997766
H        1.88273637       0.92011264      -3.32292549
H        0.06549387      -0.82161514      -0.20988412
H       -0.53240502       0.12580055      -1.60565788
H        0.00436410       0.95719518      -0.15593619
