19

C                     0.82468000          -2.33540000           1.08227000         
C                     0.00524000          -1.07857000           1.58871000         
C                     0.81260000          -2.60636000          -0.46932000         
C                     0.05377000          -0.57350000           3.07728000         
C                     0.04002000           0.13402000           0.64353000         
C                     2.21814000          -2.26239000           1.49537000         
C                     3.37481000          -2.08911000           1.75886000         
H                     0.34658000          -3.23402000           1.54420000         
H                    -1.00989000          -1.50651000           1.52009000         
H                     0.07993000          -2.00569000          -1.04749000         
H                     0.58882000          -3.67007000          -0.69761000         
H                     1.81634000          -2.44000000          -0.93704000         
H                     0.33360000          -1.32614000           3.84270000         
H                    -0.96364000          -0.20466000           3.34669000         
H                     0.69484000           0.33027000           3.23085000         
H                    -1.00514000           0.33822000           0.33559000         
H                     0.66427000          -0.03341000          -0.25382000         
H                     0.45295000           1.04971000           1.11537000         
H                     4.36927000          -1.85858000           2.01126000         
19
Properties=species:S:1:pos:R:3 energy:=T -21.043096440440=T gnorm:=T 0.000426847896=T xtb:=T 6.2.3=T (830e466)=T pbc="F F F"
C        0.03049222      -2.32686512       1.04075389
C        0.68691724      -1.03947854       1.57761199
C        0.51413533      -2.73940049      -0.34487399
C        0.13124919      -0.73899326       2.97683077
C        0.41937661       0.15421953       0.65350570
C        2.12579760      -1.23950050       1.68510433
C        3.30736837      -1.40163327       1.78220639
H       -1.05276117      -2.18152807       1.02032885
H        0.24477495      -3.13616467       1.74381946
H        0.18176938      -2.03596439      -1.10423603
H        0.11944918      -3.72072718      -0.59902873
H        1.60077794      -2.78806178      -0.36633511
H        0.31364853      -1.57552583       3.64838756
H       -0.94135380      -0.56253489       2.92387410
H        0.60918983       0.14495212       3.39394861
H       -0.65048365       0.27057541       0.49264591
H        0.90794817       0.01805674      -0.30759980
H        0.80531949       1.06750557       1.10165264
H        4.34357458      -1.54112137       1.86889345
