18

C          1.00741       -0.75050        1.26539
C          0.88566        0.26921        0.13755
C          0.07590       -1.93977        1.00751
C          0.04384        1.51980        4.30981
C          0.71788       -0.18743        2.62848
C          0.32151        1.03809        2.92339
H          2.03899       -1.12806        1.27864
H          0.85015       -0.90230        3.43251
H          0.17911        1.77819        2.14913
H         -0.13392        0.64104        0.06710
H          1.14553       -0.19487       -0.81163
H          1.55632        1.10908        0.30221
H          0.30245       -2.40065        0.04855
H         -0.95987       -1.60705        0.99567
H          0.18639       -2.69159        1.78586
H          0.74027        2.31452        4.57912
H          0.13882        0.71223        5.03259
H         -0.96314        1.93169        4.37151
18

C          0.82185       -0.39798        1.37271
C          0.41457        0.62582        0.31221
C         -0.12062       -1.60480        1.33698
C         -0.34528        0.95294        3.22692
C          1.93915        0.07992        3.52187
C          0.86725        0.20775        2.75642
H          1.83034       -0.75366        1.13353
H          2.64094       -0.69237        3.35817
H          2.10203        0.72483        4.29843
H         -0.62097        0.93030        0.44323
H          0.51767        0.19380       -0.68130
H          1.04927        1.50763        0.37013
H         -0.07011       -2.08909        0.36390
H         -1.14985       -1.30043        1.51109
H          0.16021       -2.32806        2.09914
H         -0.24642        1.21897        4.27591
H         -1.24320        0.35099        3.10365
H         -0.47337        1.86904        2.65223

