18

C                     0.12072000          -0.58887000           1.19077000         
C                    -1.08506000          -0.89102000           0.33460000         
C                     1.15590000          -1.68746000           1.28007000         
C                     0.84345000           1.45105000           4.07747000         
C                     0.20698000           0.61462000           1.80893000         
C                     1.33952000           1.12332000           2.67373000         
H                     1.73043000           2.05122000           2.20541000         
H                    -0.60933000           1.32053000           1.67353000         
H                     2.18735000           0.42417000           2.76646000         
H                    -1.61438000          -1.78197000           0.73199000         
H                    -0.75531000          -1.10212000          -0.70454000         
H                    -1.80657000          -0.04656000           0.29934000         
H                     1.54423000          -1.90707000           0.26379000         
H                     0.67581000          -2.60512000           1.68036000         
H                     2.02062000          -1.46903000           1.92694000         
H                     0.01549000           2.19087000           4.03772000         
H                     1.67568000           1.88601000           4.67130000         
H                     0.48816000           0.52924000           4.58534000         
18
Properties=species:S:1:pos:R:3 energy:=T -18.942976293988=T gnorm:=T 0.000693351735=T xtb:=T 6.2.3=T (830e466)=T pbc="F F F"
C        0.59194058      -0.44054998       1.04977371
C       -0.67764404      -0.35451912       0.20057307
C        1.06072945      -1.89304198       1.16024097
C        0.70400570       1.70611360       4.30682027
C        0.33259143       0.11914594       2.41658889
C        0.96638815       1.15118836       2.94569021
H        1.37952441       0.14838543       0.56730624
H       -0.43946105      -0.38824701       2.98201490
H        1.73840351       1.65873672       2.37987175
H       -1.48075845      -0.92796603       0.65977087
H       -0.49684488      -0.75213366      -0.79611643
H       -1.00269198       0.67958459       0.10747963
H        1.25872755      -2.30491791       0.17299527
H        0.29741841      -2.50161874       1.64075272
H        1.97210996      -1.95422970       1.75089016
H       -0.05859288       1.12795358       4.82346361
H        0.37023833       2.74172128       4.23340645
H        1.61760581       1.69620465       4.90168772
