20

C                    -1.04536000          -3.97799000           2.81398000         
C                    -0.07307000          -4.27033000           1.68300000         
C                     1.63452000          -1.37312000           3.26873000         
C                     1.26421000          -1.70930000           4.50705000         
H                    -1.81022000          -4.78026000           2.86750000         
H                    -0.49976000          -3.93243000           3.77934000         
H                     2.34289000          -2.00580000           2.74120000         
H                    -0.61876000          -4.31372000           0.71747000         
H                     0.43269000          -5.24166000           1.86317000         
H                     0.69523000          -3.47449000           1.62341000         
H                     1.66910000          -2.60431000           4.96899000         
H                     0.55834000          -1.10511000           5.06848000         
C                     1.10494000          -0.14466000           2.57974000         
C                     0.36549000          -0.51860000           1.29986000         
H                     1.03899000          -1.06498000           0.60528000         
H                     0.00488000           0.40185000           0.79486000         
H                    -0.51239000          -1.15537000           1.53365000         
H                     1.96098000           0.51583000           2.32749000         
H                     0.41020000           0.41794000           3.24125000         
H                    -1.55411000          -3.00740000           2.63933000         
20
Properties=species:S:1:pos:R:3 energy:=T -19.943295951666=T gnorm:=T 0.000765388549=T xtb:=T 6.2.3=T (830e466)=T pbc="F F F"
C        0.03194024      -4.16543036       3.54495288
C        0.68259424      -3.46155561       2.35501196
C        1.06169926      -4.72137948       4.47608800
C        1.17174830      -4.40276509       5.75131664
H       -0.59037986      -4.98481133       3.17297446
H       -0.61334351      -3.46629023       4.07986996
H        1.75466140      -5.42288353       4.02844449
H       -0.07572220      -3.07311135       1.67970665
H        1.31696666      -4.15151525       1.80287094
H        1.29714930      -2.63269916       2.69832954
H        1.93574681      -4.82346093       6.38297697
H        0.49710241      -3.70551135       6.22111886
C       -0.01036035       1.42362284       0.36653250
C       -0.26550747      -0.00716805       0.81588374
H        0.02040373      -0.70946974       0.03563981
H       -1.31947503      -0.15531684       1.04153001
H        0.31104825      -0.23503831       1.70955111
H        1.04306778       1.57030484       0.13874469
H       -0.58832396       1.65453468      -0.52552168
H       -0.29222599       2.12603423       1.14775849
