23

C                    -0.01718000          -2.58053000          -0.05303000         
C                     0.43392000          -1.11623000           0.14304000         
C                     1.78925000          -1.07711000           2.41848000         
C                     0.56583000          -0.57987000           1.59869000         
C                    -1.34704000          -2.89734000           0.63252000         
C                     1.87935000          -2.57640000           2.68113000         
C                     0.64892000           0.95703000           1.53733000         
H                     0.73635000          -3.31023000           0.27375000         
H                     1.38311000          -0.93957000          -0.40866000         
H                    -0.35530000          -0.51496000          -0.36163000         
H                     1.72554000          -0.59220000           3.41821000         
H                     2.73726000          -0.74758000           1.94023000         
H                    -0.36459000          -0.81453000           2.15604000         
H                    -0.14541000          -2.74415000          -1.14509000         
H                    -1.65585000          -3.93370000           0.38131000         
H                    -2.13794000          -2.19685000           0.29042000         
H                    -1.25051000          -2.83483000           1.73556000         
H                     2.15718000          -3.12521000           1.76692000         
H                     0.93234000          -2.96222000           3.11284000         
H                     2.70193000          -2.76705000           3.40235000         
H                    -0.23963000           1.37729000           1.01866000         
H                     1.56241000           1.28072000           0.99280000         
H                     0.67106000           1.38951000           2.56044000         
23
Properties=species:S:1:pos:R:3 energy:=T -23.157983211591=T gnorm:=T 0.000780276799=T xtb:=T 6.2.3=T (830e466)=T pbc="F F F"
C        0.66819918      -2.05242278       1.34296200
C        0.58559554      -0.52213021       1.26961841
C        1.70031072      -2.45833208       2.40363592
C       -0.21650504       0.00243406       0.08024086
C       -0.69825677      -2.66461275       1.64329470
C        2.03967958      -3.94478779       2.39493545
C       -0.15321393       1.52289183      -0.00715757
H        1.01202483      -2.42510994       0.37063203
H        0.14846022      -0.14216312       2.19641238
H        1.60043093      -0.12130417       1.19839085
H        1.32725575      -2.17717161       3.39119752
H        2.61925911      -1.89415331       2.22709389
H       -1.26032786      -0.30241951       0.16773969
H        0.18150948      -0.43017958      -0.84085492
H       -0.63615004      -3.74888989       1.68163879
H       -1.41772006      -2.40176090       0.87285034
H       -1.07021339      -2.30549163       2.60119238
H        2.35366059      -4.25852618       1.40118979
H        1.18645092      -4.54845420       2.69307811
H        2.85214304      -4.14683567       3.08894986
H       -0.71747866       1.88146829      -0.86490375
H        0.87663854       1.85835224      -0.11007740
H       -0.57075269       1.97358889       0.89025068
