23

C          0.06448       -3.48487        3.20212
C          0.82595       -4.46266        2.30899
C          0.99556       -2.70353        4.07330
C          0.89756       -2.60904        5.38576
H         -0.49529       -2.79060        2.56826
H         -0.65257       -4.02684        3.82178
H          1.80016       -2.19848        3.55253
H          0.13536       -5.02396        1.68400
H          1.39375       -5.16574        2.91465
H          1.51908       -3.92963        1.66131
H          1.59273       -2.03165        5.97143
H          0.11056       -3.10322        5.93233
C         -0.28050       -0.08012        0.88973
C         -0.38977        0.50990        2.29033
C          1.15844       -0.43502        0.53699
H         -0.66420        0.63926        0.16292
H         -0.90147       -0.97657        0.82251
H          1.21793       -0.85337       -0.46523
H          1.55162       -1.16673        1.23855
H          1.78937        0.45016        0.57813
H         -0.02420       -0.19505        3.03427
H          0.19994        1.42103        2.36446
H         -1.42381        0.75112        2.52597
23

C         -0.32110       -3.10670        1.74264
C          0.59507       -4.29913        1.49450
C          0.93390       -1.18495        4.15244
C          0.63643       -2.36510        4.66309
H         -1.35793       -3.45238        1.74803
H         -0.21102       -2.57963        2.72790
H          1.95715       -0.95220        3.88355
H          0.43197       -4.70650        0.49859
H          0.39779       -5.08343        2.22211
H          1.63925       -4.01168        1.58378
H          1.38353       -3.12334        4.82561
H         -0.37218       -2.62158        4.94530
C         -0.17970       -2.00882        0.68823
C         -0.05566       -0.09828        3.89711
C          1.19346       -1.34741        0.69733
H         -0.94036       -1.24736        0.87839
H         -0.37420       -2.42926       -0.30154
H          1.96468       -2.04643        0.38485
H          1.43377       -0.99359        1.69747
H          1.21044       -0.49960        0.01547
H          0.23102        0.80545        4.43446
H         -0.08143        0.14501        2.83477
H         -1.05226       -0.39691        4.21321

