21

C          1.24967       -3.69721        1.16047
C          0.43136       -3.51864        2.44163
C          1.87778       -5.09166        1.09680
C          2.28954       -2.68459        1.09295
C          3.15237       -1.85633        1.05789
H          0.58914       -3.56408        0.29400
H         -0.37249       -4.25102        2.47868
H         -0.00263       -2.52234        2.48089
H          1.06566       -3.65271        3.31558
H          2.55009       -5.24066        1.93934
H          2.44688       -5.21297        0.17757
H          1.10259       -5.85446        1.13058
H          3.90254       -1.12437        1.01431
C          0.22795       -0.29811        1.04568
C         -1.04287       -1.12567        0.92575
H         -0.84482       -2.05195        0.39145
H         -1.81023       -0.57676        0.38419
H         -1.43414       -1.37438        1.91002
H          0.03427        0.62330        1.59065
H          0.60758       -0.03926        0.05984
H          1.00081       -0.85626        1.56993
21

C          0.36115       -2.67576        1.20450
C         -0.24109       -3.08492        2.54288
C          1.56183       -3.53941        0.83933
C          1.72673       -0.22038        0.35215
C          2.70100       -0.86412        0.61297
H         -0.39791       -2.76509        0.42379
H         -0.56944       -4.12208        2.51297
H         -1.09818       -2.46081        2.78593
H          0.49417       -2.98242        3.33835
H          2.33578       -3.45460        1.59947
H          1.97964       -3.22717       -0.11504
H          1.27272       -4.58573        0.76305
H          3.55859       -1.42351        0.84076
C          0.52692        0.53126        0.04256
C         -0.73027       -0.29715        0.30921
H         -0.72775       -1.19740       -0.30104
H         -1.62010        0.28255        0.07302
H         -0.77561       -0.59365        1.35486
H          0.51211        1.43918        0.65327
H          0.56020        0.82977       -1.00968
H          0.67137       -1.62955        1.24633

