15

C          0.15889       -0.60692        4.83914
C         -0.37811       -1.72223        5.72796
C          0.74455       -0.63563        0.98187
C          0.23336       -1.01658        3.39533
C          0.66716       -0.23783        2.41860
H         -0.09756       -2.02243        3.17148
H          1.15475       -0.31391        5.18496
H         -0.48309        0.27410        4.93350
H          0.99888        0.76951        2.64014
H          0.26392       -2.59875        5.66926
H         -1.38082       -2.00802        5.41677
H         -0.42098       -1.39801        6.76562
H          0.13640        0.03222        0.37156
H          0.39519       -1.65559        0.84019
H          1.77188       -0.56314        0.62453
15

C          0.25808       -0.58568        4.36800
C         -0.22491       -1.80644        5.13793
C          0.89877       -0.47288        0.42582
C          0.02610       -2.19649        2.22792
C          0.42119       -1.41723        1.41058
H         -0.31976       -2.88003        2.94395
H          1.22592       -0.25722        4.74089
H         -0.44631        0.23613        4.47572
H          0.35751       -0.81740        3.30943
H          0.48181       -2.62678        5.03388
H         -1.19233       -2.13561        4.76416
H         -0.32879       -1.57817        6.19684
H          0.43503        0.50017        0.58710
H          0.64975       -0.82243       -0.57594
H          1.98052       -0.36721        0.50541

