18

C         -0.07907       -0.36973        1.28697
C          2.35819       -1.23034        1.38390
C          0.19360        0.19844        2.67464
C         -0.42616       -1.80572       -1.25479
C          1.03874       -1.17954        0.67505
C          0.85293       -1.81656       -0.47708
H         -0.97472       -0.99730        1.33499
H         -0.31589        0.45664        0.60759
H          1.66599       -2.38648       -0.90512
H          3.06494       -1.84155        0.82818
H          2.24693       -1.65207        2.38155
H          2.77605       -0.22990        1.48846
H          1.04940        0.86866        2.66654
H          0.38044       -0.59603        3.39318
H         -0.67281        0.76278        3.01432
H         -0.33236       -2.39558       -2.16217
H         -1.24574       -2.21373       -0.66150
H         -0.70207       -0.78721       -1.53123
18

C         -1.29448       -0.20801        0.72692
C          2.45313       -1.82332        1.47401
C         -0.36853        0.07364        1.90410
C         -1.05581       -1.59561        0.14462
C          2.13923       -0.98277        0.34058
C          1.87034       -0.28675       -0.59481
H         -2.33480       -0.12289        1.05136
H         -1.12739        0.54241       -0.04918
H          1.63042        0.32240       -1.41401
H          3.22037       -2.54730        1.19987
H          1.55986       -2.35745        1.79796
H          2.81991       -1.21361        2.29961
H          0.67043        0.03268        1.58204
H         -0.51772       -0.66376        2.69080
H         -0.56397        1.06055        2.31819
H         -0.02455       -1.69188       -0.18834
H         -1.24919       -2.36060        0.89403
H         -1.71296       -1.77503       -0.70336

