12

C                     2.23084000           1.46524000          -1.90172000         
C                     1.93714000           0.69627000          -3.19252000         
C                     1.11407000          -0.52667000          -2.91702000         
O                     1.04320000           1.89172000          -1.27773000         
O                     0.71252000           3.03966000          -1.84025000         
O                     0.02121000          -0.66959000          -3.44320000         
H                    -0.26607000           3.11163000          -1.70460000         
H                     2.77975000           0.80736000          -1.19437000         
H                     2.91154000           2.32352000          -2.11089000         
H                     1.49181000          -1.29511000          -2.25032000         
H                     2.89787000           0.37734000          -3.65017000         
H                     1.41182000           1.36302000          -3.91070000         
12
Properties=species:S:1:pos:R:3 energy:=T -21.600521303329=T gnorm:=T 0.000278485797=T xtb:=T 6.2.3=T (830e466)=T pbc="F F F"
C        2.81545053       0.67019980      -1.97401482
C        1.92694395       0.88034450      -3.20379233
C        0.51576027       0.47764052      -2.87959607
O       -0.25653218       1.36869734      -2.21042774
O        0.34249508       2.61990168      -1.92200198
O        0.00346379      -0.57329406      -3.13398754
H       -0.39249218       3.10265481      -1.51616574
H        2.49279872       1.30884844      -1.15572505
H        3.84497972       0.91644770      -2.21970670
H        2.77171066      -0.36716961      -1.65069181
H        2.27059220       0.25135563      -4.02483166
H        1.95052944       1.92876325      -3.50254855
