14

C                     0.32074000          -0.91342000          -1.17519000         
C                     0.56692000          -1.05233000          -2.67286000         
C                     1.54737000          -1.29112000          -0.39981000         
O                     1.51301000          -2.20684000           0.40513000         
H                     2.47379000          -0.74561000          -0.54974000         
H                    -0.53251000          -1.56406000          -0.88457000         
H                     0.05445000           0.13727000          -0.94045000         
H                    -0.34668000          -0.75407000          -3.22893000         
H                     0.81170000          -2.10585000          -2.92619000         
H                     1.40473000          -0.39767000          -2.99362000         
O                     1.52697000           2.37317000          -0.81691000         
O                     2.49041000           2.35603000          -1.71440000         
H                     2.67353000           1.39513000          -1.87278000         
H                     0.69898000           2.53586000          -1.33758000         
14
Properties=species:S:1:pos:R:3 energy:=T -22.599428484340=T gnorm:=T 0.000470013309=T xtb:=T 6.2.3=T (830e466)=T pbc="F F F"
C       -0.60380307       0.09199382      -2.08922687
C        0.05406141      -0.67972390      -3.22649150
C        3.38812651      -0.40954690       0.69570827
O        3.40457537      -1.25445586       1.52973462
H        4.22411193       0.26478355       0.43681530
H       -1.68047411      -0.06174854      -2.10668156
H       -0.23914311      -0.25224934      -1.12253769
H       -0.33273936      -0.34611366      -4.18674794
H       -0.15099285      -1.74289483      -3.12807154
H        1.13423331      -0.54493590      -3.23236882
O        2.30010518      -0.18237497      -0.04781890
O        2.48649738       0.86154719      -0.97954522
H        1.64313441       0.85938129      -1.46484079
H       -0.42428299       1.16282805      -2.18582734
