13

C                     1.81429000           1.68867000          -1.66178000         
C                     0.61477000           0.76378000          -1.44176000         
C                     1.06410000          -0.66725000          -1.16842000         
O                     1.37065000           2.97604000          -2.01983000         
O                     1.32649000           3.00825000          -3.34300000         
H                     0.37527000           2.85411000          -3.57739000         
H                     2.40427000           1.76559000          -0.72255000         
H                     2.50659000           1.26670000          -2.42847000         
H                    -0.02415000           0.75617000          -2.35010000         
H                     0.01142000           1.14162000          -0.58700000         
H                     1.62696000          -1.05699000          -2.04419000         
H                     0.17436000          -1.31175000          -1.00839000         
H                     1.71158000          -0.71255000          -0.26783000         
13
Properties=species:S:1:pos:R:3 energy:=T -18.620415096782=T gnorm:=T 0.000657370975=T xtb:=T 6.2.3=T (830e466)=T pbc="F F F"
C        1.82484002       1.75489810      -1.39446532
C        0.70272640       0.79841044      -1.82549062
C        1.12441824      -0.65893091      -1.68982984
O        1.45800624       3.09754841      -1.62359156
O        0.35037215       1.05515549      -3.16595849
H        0.51835143       1.99203799      -3.33604523
H        2.08592556       1.58595532      -0.34205265
H        2.70945375       1.58423314      -2.01274385
H       -0.17879054       0.98471405      -1.18203560
H        0.70953445       3.31801829      -1.05720405
H        2.00378346      -0.84613170      -2.30016573
H        0.32012521      -1.29999563      -2.03836323
H        1.34785364      -0.89352301      -0.65276382
