19

C                    -1.54898000          -0.43821000           0.00453000         
C                    -0.02984000          -0.11037000           0.04914000         
C                    -2.30270000           0.13211000           1.22471000         
C                    -2.22011000           0.07732000          -1.28230000         
C                     0.36695000           1.36293000           0.03294000         
C                    -1.62181000          -1.91255000           0.01871000         
C                    -1.62586000          -3.11663000          -0.05119000         
H                     0.46138000          -0.59345000          -0.82602000         
H                     0.40467000          -0.55998000           0.97058000         
H                    -1.85906000          -0.22641000           2.17699000         
H                    -3.37257000          -0.17512000           1.20200000         
H                    -2.27896000           1.24336000           1.22065000         
H                    -3.29000000          -0.23173000          -1.31275000         
H                    -1.71871000          -0.33140000          -2.18534000         
H                    -2.19364000           1.18629000          -1.33236000         
H                    -0.02572000           1.89398000           0.92328000         
H                     0.02180000           1.86100000          -0.89524000         
H                     1.47725000           1.41926000           0.06067000         
H                    -1.56457000          -4.17041000          -0.10340000         
19
Properties=species:S:1:pos:R:3 energy:=T -21.046291012746=T gnorm:=T 0.000467914146=T xtb:=T 6.2.3=T (830e466)=T pbc="F F F"
C       -2.52161119      -0.20963067      -0.04383128
C        1.07701353      -0.88820244       0.06311391
C       -3.24659711       0.21187187       1.20478645
C       -3.17340722       0.18655687      -1.34046093
C        1.01611288       0.63270857       0.05850871
C       -1.40689142      -0.87835070      -0.00555794
C       -0.28454155      -1.52823247       0.03209895
H        1.64642178      -1.23935269      -0.80362096
H        1.60500970      -1.23578388       0.95697585
H       -2.69969736      -0.09171743       2.09355896
H       -4.23897859      -0.23830122       1.23189546
H       -3.36881318       1.29503688       1.21805804
H       -4.18360019      -0.22001409      -1.39211333
H       -2.60276592      -0.17915359      -2.19002055
H       -3.24489830       1.27261230      -1.40528170
H        0.45853386       0.99004065       0.92110776
H        0.51515291       0.98735516      -0.83930885
H        2.01795008       1.05554523       0.09026491
H       -0.28487272      -2.61299835       0.04542655
