19

C                    -1.43270000          -0.56700000          -0.02208000         
C                    -0.05880000           0.12132000           0.05295000         
C                    -2.33500000          -0.06795000           1.11573000         
C                    -1.25555000          -2.09229000           0.07206000         
C                    -3.51453000           0.87539000          -3.26279000         
C                    -2.12419000          -0.19205000          -1.26537000         
C                    -2.68943000           0.26052000          -2.22705000         
H                     0.60884000          -0.23659000          -0.76110000         
H                     0.43158000          -0.10274000           1.02564000         
H                    -0.16124000           1.22423000          -0.03808000         
H                    -0.59664000          -2.46841000          -0.74042000         
H                    -2.23515000          -2.61183000          -0.00047000         
H                    -0.79162000          -2.36443000           1.04613000         
H                    -2.47974000           1.03351000           1.03471000         
H                    -3.33833000          -0.54651000           1.04995000         
H                    -1.89771000          -0.29428000           2.10865000         
H                    -4.52158000           0.40930000          -3.23764000         
H                    -3.05793000           0.75047000          -4.26388000         
H                    -3.62020000           1.95515000          -3.02623000         
19
Properties=species:S:1:pos:R:3 energy:=T -21.051959346254=T gnorm:=T 0.000446292752=T xtb:=T 6.2.3=T (830e466)=T pbc="F F F"
C       -0.73651119      -0.90605515      -0.39044237
C        0.58265617      -0.19948535      -0.23202983
C       -3.83484831       0.85225849       0.32683872
C       -0.68429932      -2.40699608      -0.29636123
C       -3.44662596       0.71996749      -2.18541566
C       -1.84730345      -0.26151653      -0.59658355
C       -2.95605153       0.38662209      -0.80229458
H        1.27541580      -0.52432995      -1.00871694
H        1.02476528      -0.44196786       0.73442514
H        0.45684826       0.87772249      -0.30159491
H       -0.01159935      -2.80675268      -1.05533798
H       -1.67119213      -2.83951141      -0.43754184
H       -0.30420058      -2.70717445       0.68017176
H       -3.93992656       1.93682460       0.29713041
H       -4.82928359       0.41617840       0.23052871
H       -3.41673154       0.56564882       1.28809035
H       -4.42280447       0.26631729      -2.35608024
H       -2.75373082       0.35872651      -2.94088992
H       -3.55449671       1.79933327      -2.29318605
