16

C                    -1.46791000          -0.49492000           0.01247000         
C                    -2.14357000          -0.08053000          -1.30820000         
C                    -1.53418000          -2.01846000           0.19485000         
C                    -0.00473000          -0.01927000          -0.00449000         
C                    -2.17212000           0.08511000           1.17069000         
C                    -2.68254000           0.51224000           2.17600000         
H                    -3.20827000          -0.39509000          -1.33525000         
H                    -1.62104000          -0.55082000          -2.17123000         
H                    -2.09914000           1.02239000          -1.44565000         
H                     0.04763000           1.08417000          -0.13728000         
H                     0.54572000          -0.49153000          -0.84766000         
H                     0.51380000          -0.28233000           0.94190000         
H                    -1.05994000          -2.30781000           1.15987000         
H                    -2.59490000          -2.35550000           0.22537000         
H                    -1.01568000          -2.55205000          -0.62742000         
H                    -3.14364000           0.81160000           3.08013000         
16
Properties=species:S:1:pos:R:3 energy:=T -17.881750996441=T gnorm:=T 0.000228984335=T xtb:=T 6.2.3=T (830e466)=T pbc="F F F"
C       -1.19762887       0.20665730      -0.44098095
C       -1.95281159       0.59032046      -1.68424205
C       -2.31456855      -2.62518541       1.58541896
C        0.24081589       0.64460272      -0.39203259
C       -1.75320972      -0.45536343       0.53064406
C       -2.30225860      -1.12760898       1.49548423
H       -2.97822881       0.23276671      -1.64232484
H       -1.46664330       0.16590819      -2.56268197
H       -1.96185724       1.67453576      -1.79630197
H        0.30613687       1.72744007      -0.49766139
H        0.79675904       0.19275749      -1.21376101
H        0.70422007       0.35364314       0.54706777
H       -1.82376041      -2.94906514       2.50318072
H       -3.34124347      -2.99056125       1.60788729
H       -1.80103278      -3.06720234       0.73544878
H       -2.79519853      -0.60644528       2.30895494
