24

C         -1.19364       -0.99992        2.08246
C         -2.50058       -0.40348        1.54739
C         -0.46558        0.02829        2.95626
C         -1.48776       -2.26700        2.89397
C         -0.33698       -1.34818        0.95631
C          0.36999       -1.63042        0.03296
H         -3.15442       -0.13352        2.37440
H         -3.01703       -1.12243        0.91496
H         -2.29781        0.48804        0.95800
H         -0.23859        0.92350        2.38087
H          0.46892       -0.38409        3.33124
H         -1.08851        0.30714        3.80389
H         -1.98154       -3.01116        2.27245
H         -2.13616       -2.03006        3.73524
H         -0.56466       -2.69778        3.27627
H          0.98994       -1.87767       -0.77664
C         -2.27166        0.99178       -1.57179
C         -2.24179       -0.52756       -1.49547
H         -1.27923        1.38380       -1.78346
H         -2.94616        1.32474       -2.35806
H         -2.61169        1.41604       -0.62951
H         -3.23244       -0.91786       -1.27278
H         -1.91473       -0.95039       -2.44298
H         -1.55901       -0.85842       -0.71586
24

C         -1.41189       -0.49940        1.96705
C         -2.85898       -0.04054        1.80846
C         -0.72563        0.28264        3.08416
C         -1.36087       -1.99783        2.25038
C         -0.86732       -1.51633       -1.03724
C          0.10506       -2.02116       -0.55701
H         -3.41384       -0.21685        2.72758
H         -3.34742       -0.58652        1.00463
H         -2.90470        1.02243        1.58144
H         -0.74450        1.34989        2.87351
H          0.31189       -0.02691        3.18768
H         -1.23115        0.11144        4.03266
H         -1.79960       -2.55544        1.42630
H         -1.90967       -2.23184        3.16052
H         -0.33250       -2.32855        2.37563
H          0.95086       -2.47381       -0.13373
C         -1.95417        0.64558       -1.47910
C         -2.03272       -0.87542       -1.61243
H         -1.07090        1.02581       -1.98762
H         -2.83569        1.10703       -1.91908
H         -1.89740        0.93186       -0.43174
H         -2.92713       -1.24770       -1.10397
H         -2.10216       -1.15390       -2.66827
H         -0.87839       -0.31217        1.02872

