15

C          0.45385        1.88024       -0.84996
C          0.93304        0.75226        0.05543
H          1.37271       -0.04764       -0.53635
H          0.09878        0.34166        0.62060
H          1.68327        1.11261        0.75569
H          1.30359        2.29269       -1.39912
H          0.03591        2.68271       -0.23804
H         -2.56847        1.58963        1.71581
C         -0.60221        1.39632       -1.83588
C         -2.67442        0.61512        1.34012
C         -2.79283       -0.49242        0.90989
H         -1.46256        0.99864       -1.30142
H         -0.93630        2.21175       -2.47343
H         -0.19741        0.60971       -2.46903
H         -2.89344       -1.46599        0.53000
15

C          0.29079        3.98253       -3.29165
C          0.19054        2.48705       -3.03107
H          0.65864        1.92535       -3.83651
H         -0.85101        2.18254       -2.96025
H          0.68561        2.22561       -2.09845
H          1.33165        4.29339       -3.34185
H         -0.18902        4.23940       -4.23314
H         -0.19516        4.54293       -2.49637
C         -3.66961        0.25189       -3.03128
C         -2.84706        0.01318       -1.86694
C         -2.16417       -0.18684       -0.90541
H         -4.63470       -0.24027       -2.91268
H         -3.83124        1.32190       -3.15969
H         -3.17844       -0.14148       -3.92104
H         -1.56614       -0.36416       -0.06260

