18

C         -2.23122        2.04619       -2.31731
C         -0.41252        0.22075       -2.23859
C         -1.62837        2.40799       -3.66982
C         -1.63925       -0.55438        0.52177
C         -1.58148        0.88768       -1.58061
C         -2.08246        0.53427       -0.40158
H         -3.29003        1.81105       -2.46167
H         -2.19043        2.92931       -1.67253
H         -2.93288        1.09433       -0.02770
H         -0.70368       -0.18553       -3.20601
H         -0.02084       -0.59059       -1.63420
H          0.38891        0.93906       -2.40440
H         -2.17566        3.24632       -4.09657
H         -1.69249        1.57616       -4.36670
H         -0.58652        2.70254       -3.57253
H         -0.78844       -1.11078        0.14161
H         -2.46005       -1.25240        0.68923
H         -1.36849       -0.12966        1.48888
18

C         -2.63204        1.91657       -1.40024
C          0.42270       -0.14451       -2.36583
C         -2.15559        2.04235       -2.83947
C         -2.00811       -0.68519        0.88407
C         -0.43467       -0.34147       -1.21568
C         -1.14509       -0.49945       -0.26390
H         -3.70446        1.73730       -1.36879
H         -2.42202        2.82964       -0.84785
H         -2.13094        1.09025       -0.90184
H         -0.15632       -0.23409       -3.28419
H          1.21628       -0.89121       -2.37419
H          0.87308        0.84678       -2.32975
H         -2.66272        2.86297       -3.34241
H         -2.35928        1.12669       -3.39029
H         -1.08508        2.23162       -2.87263
H         -1.80052       -1.64517        1.35695
H         -3.05298       -0.66311        0.57363
H         -1.84007        0.10943        1.61108

