26

C                     0.09071000          -2.09068000           1.57791000         
C                    -0.03689000          -0.53488000           1.50752000         
C                     0.58208000          -0.01539000           0.17635000         
C                     1.54799000          -2.56642000           1.84552000         
C                    -0.87784000          -2.68852000           2.62096000         
C                     0.55658000           0.17674000           2.74183000         
C                     1.77438000          -4.02819000           1.46928000         
C                     0.53494000           1.49745000          -0.00877000         
H                    -0.23984000          -2.47620000           0.58678000         
H                    -1.12241000          -0.28653000           1.46886000         
H                     0.02161000          -0.48091000          -0.66605000         
H                     1.64354000          -0.31203000           0.07870000         
H                     1.81134000          -2.39453000           2.91310000         
H                     2.27131000          -1.99616000           1.23417000         
H                    -0.86075000          -3.79585000           2.59875000         
H                    -1.92005000          -2.37429000           2.39748000         
H                    -0.62487000          -2.36309000           3.65081000         
H                     0.15025000          -0.23856000           3.68482000         
H                     0.28711000           1.25267000           2.72941000         
H                     1.66298000           0.08932000           2.75394000         
H                     1.58817000          -4.15995000           0.38078000         
H                     1.11896000          -4.71524000           2.03817000         
H                     2.83150000          -4.30063000           1.67379000         
H                    -0.50519000           1.87534000           0.06488000         
H                     0.94260000           1.75008000          -1.01116000         
H                     1.17578000           2.00013000           0.74567000         
26
Properties=species:S:1:pos:R:3 energy:=T -26.278885313943=T gnorm:=T 0.000422153973=T xtb:=T 6.2.3=T (830e466)=T pbc="F F F"
C       -1.50641709      -0.95359946       2.21001588
C       -0.92516095       0.06206120       2.83003346
C        1.42133141      -1.35898121      -0.41657994
C        2.10401205      -1.76680781       0.88627458
C       -1.36251711      -2.41055890       2.50554986
C        0.02603123       0.00839401       3.98104835
C        2.35891897      -3.26750850       0.95238231
C        1.17103949       0.14238572      -0.47626789
H       -2.17516670      -0.73733928       1.38529258
H       -1.14267661       1.06704239       2.48808923
H        0.46838672      -1.88596070      -0.50328948
H        2.04444155      -1.66028381      -1.26229050
H        1.47365728      -1.46661334       1.72489360
H        3.05406994      -1.23441198       0.97560499
H       -1.01766715      -2.93506957       1.61474660
H       -2.33244148      -2.82852387       2.77721787
H       -0.66368959      -2.60427016       3.31357643
H        0.21039505      -1.00681296       4.31878079
H       -0.37284601       0.58436606       4.81607270
H        0.97737742       0.45930406       3.69677541
H        3.00993772      -3.58179018       0.13905540
H        1.42408596      -3.81822615       0.87139854
H        2.83309941      -3.53541210       1.89388764
H        0.53086192       0.44931796       0.34792832
H        0.68538939       0.41435032      -1.41077796
H        2.10953719       0.68862825      -0.40591880
