21

C          0.83882        1.10531        1.96359
C          1.76698        1.86526        1.01037
C          0.93123        1.70375        3.36645
C         -0.60945        1.13106        1.48048
C          1.86719        1.23143       -0.37206
H          1.17392        0.06242        2.00497
H          2.76558        1.89705        1.45363
H          1.41678        2.89603        0.91430
H          0.30263        1.15217        4.06221
H          0.60258        2.74115        3.35741
H          1.95498        1.67206        3.73281
H         -0.94118        2.15667        1.33124
H         -1.26217        0.66819        2.21806
H         -0.71670        0.59022        0.54417
H          2.61759        1.74611       -0.96830
H          0.91914        1.28797       -0.89989
H          2.14913        0.18437       -0.28684
C          1.33137       -2.01557       -0.22690
C          0.54425       -1.82697        0.65069
H          2.01533       -2.18287       -1.00560
H         -0.13979       -1.65705        1.42853
21

C         -0.26724        0.17012        2.90638
C          1.82888        1.33078        0.39578
C          0.41755        1.21390        3.77996
C         -1.32440        0.79447        2.00455
C          1.87494        1.90920       -1.01856
H         -0.57613       -0.33971        3.73180
H          2.82690        1.35793        0.84375
H          1.15950        1.92851        1.02123
H         -0.30533        1.70244        4.42998
H          0.89087        1.97626        3.16481
H          1.18235        0.75300        4.40106
H         -0.87729        1.54299        1.35418
H         -2.09866        1.27632        2.59789
H         -1.78972        0.03622        1.37909
H          2.22995        2.93737       -0.99339
H          0.88402        1.89317       -1.46728
H          2.54425        1.32475       -1.64618
C          0.96342       -1.16864        0.35176
C          1.35785       -0.03937        0.38677
H          0.61642       -2.15819        0.33890
H          0.38204       -0.65258        2.10859

