9

C                    -4.06965000           2.78007000          -0.56730000         
O                    -3.71490000           2.22052000          -1.74242000         
N                    -4.22008000           2.05323000           0.47963000         
H                    -3.56537000           1.26791000          -1.82646000         
H                    -4.49026000           2.47813000           1.37833000         
H                    -4.22706000           3.85286000          -0.51287000         
O                    -0.92095000           1.08998000           0.28681000         
H                    -1.03266000           1.86497000          -0.31938000         
H                    -1.63738000           0.46064000           0.01996000         
9
Properties=species:S:1:pos:R:3 energy:=T -15.600919456511=T gnorm:=T 0.000752561480=T xtb:=T 6.2.3=T (830e466)=T pbc="F F F"
C       -3.86782026       3.21978197      -0.03875581
O       -2.12742086       1.02132073      -1.74384852
N       -3.61209112       2.33929064       0.81314500
H       -1.60200679       0.41509703      -2.27904842
H       -3.99755316       2.48395367       1.74530178
H       -4.46267198       4.12113334       0.12911832
O       -2.11135640       0.37784744      -0.47372791
H       -3.46687342       3.08305322      -1.03554768
H       -2.63051600       1.00683196       0.07966324
