11

C                    -6.48772000          -2.46034000          -3.02869000         
H                    -7.03053000          -1.64835000          -2.50359000         
H                    -5.44829000          -2.15115000          -3.24096000         
H                    -6.99474000          -2.65566000          -3.99850000         
C                    -6.50910000          -3.75119000          -2.19338000         
C                    -5.84235000          -3.58656000          -0.82569000         
H                    -5.97234000          -4.54284000          -2.75292000         
H                    -7.56174000          -4.04353000          -2.03760000         
H                    -4.76510000          -3.35255000          -0.94480000         
H                    -5.90879000          -4.53323000          -0.25743000         
H                    -6.35650000          -2.79494000          -0.23706000         
