15

C                    -5.12409000           0.83445000          -1.20153000         
C                    -5.86106000          -0.12686000          -0.30452000         
C                    -6.42723000           0.30894000           0.83202000         
H                    -5.11538000           1.86759000          -0.79255000         
H                    -4.07418000           0.50405000          -1.32400000         
H                    -5.60877000           0.85717000          -2.19942000         
H                    -6.96863000          -0.36928000           1.48340000         
H                    -6.35856000           1.35051000           1.12974000         
C                    -5.96536000          -1.58005000          -0.70968000         
C                    -5.34135000          -2.51968000           0.32468000         
H                    -5.44927000          -1.73165000          -1.68363000         
H                    -7.03348000          -1.85059000          -0.84812000         
H                    -4.27847000          -2.26213000           0.50767000         
H                    -5.39854000          -3.56514000          -0.04263000         
H                    -5.88338000          -2.45917000           1.29063000         
