6

C                    -5.19127000          -2.34003000          -1.18034000         
C                    -4.95470000          -2.86546000           0.01893000         
H                    -5.25863000          -2.97961000          -2.05467000         
H                    -5.31176000          -1.26834000          -1.29197000         
H                    -4.83008000          -3.93772000           0.13088000         
H                    -4.88327000          -2.22483000           0.89254000         
