51

C                    -4.24357000          -0.90618000          -2.92904000         
C                    -3.79907000          -0.96272000          -1.45249000         
C                    -4.91068000          -1.56585000          -0.55556000         
H                    -3.78251000           0.10952000          -1.15712000         
H                    -5.24927000          -0.45184000          -3.01811000         
H                    -3.54489000          -0.28122000          -3.52296000         
H                    -4.25427000          -1.92475000          -3.36809000         
H                    -5.82697000          -0.96082000          -0.75413000         
H                    -4.68071000          -1.42539000           0.51909000         
C                    -5.28902000          -3.02405000          -0.79723000         
C                    -4.23491000          -3.98004000          -0.26067000         
Ga                   -1.74118000          -1.39739000          -1.47029000         
H                    -5.48945000          -3.20802000          -1.87204000         
H                    -6.23627000          -3.22518000          -0.23801000         
H                    -3.27268000          -3.83978000          -0.78638000         
H                    -4.57725000          -5.02267000          -0.40933000         
H                    -4.09403000          -3.80162000           0.82764000         
O                    -1.46550000           0.22470000          -1.97390000         
O                    -0.47500000          -1.85380000          -0.20970000         
Si                   -1.21050000           0.77100000           1.93840000         
Si                    0.57170000           2.79150000           0.02000000         
Si                   -0.10100000           0.97470000          -2.55070000         
Si                    1.45390000          -0.94150000           2.56990000         
Si                    3.19600000           1.12360000           0.71700000         
Si                    2.60090000          -0.76260000          -1.85930000         
Si                    0.91120000          -2.69170000           0.01740000         
O                    -0.41930000           1.90880000           1.04030000         
O                     0.25860000           2.29690000          -1.54080000         
O                    -2.34190000          -0.01290000           0.87860000         
O                    -0.08870000          -0.26190000           2.58450000         
O                     2.16490000           2.42420000           0.41970000         
O                     1.26690000           0.00510000          -2.51030000         
O                     2.48340000           0.20220000           1.91120000         
O                     3.29020000           0.22850000          -0.69400000         
O                     2.09190000          -2.16570000          -1.08360000         
O                     1.48520000          -2.29100000           1.57560000         
O                    -0.24900000           1.50440000          -4.15050000         
O                     0.24190000           4.41990000           0.27930000         
O                     4.71360000           1.62810000           1.22910000         
O                     3.76490000          -1.07700000          -3.03310000         
O                    -2.28530000           1.39030000           3.07800000         
O                     1.81930000          -1.30340000           4.16860000         
O                     0.72460000          -4.36280000          -0.11980000         
H                     2.59110000          -1.81230000           4.45710000         
H                    -3.30090000           0.20430000           1.03180000         
H                    -2.04800000           1.75290000           3.94430000         
H                     0.79260000           5.14990000          -0.03990000         
H                    -1.04630000           1.93280000          -4.49610000         
H                     3.55770000          -1.23010000          -3.96710000         
H                     1.46710000          -4.98330000          -0.17420000         
H                     5.45440000           1.81490000           0.63320000         
