51

C                     3.08680000          -2.56988000           0.30986000         
C                     3.02407000          -3.13278000           1.51698000         
H                     6.70841000          -0.00445000          -1.87757000         
H                     3.52107000          -3.12725000          -0.51446000         
H                     2.59885000          -2.60705000           2.36018000         
H                     3.40535000          -4.13654000           1.66721000         
C                     6.02844000           0.16427000          -1.01687000         
C                     6.06967000           1.63427000          -0.61117000         
C                     5.17553000           1.91606000           0.59260000         
Ga                    2.41081000          -0.74271000          -0.08829000         
H                     6.35318000          -0.48135000          -0.17354000         
H                     5.00426000          -0.12303000          -1.32789000         
H                     7.11581000           1.90662000          -0.35212000         
H                     5.73854000           2.25870000          -1.46906000         
H                     5.23915000           2.99167000           0.86097000         
H                     4.12062000           1.67974000           0.35705000         
H                     5.49767000           1.30999000           1.46593000         
O                     1.77910000           0.06000000           1.33780000         
O                     1.21960000          -0.88210000          -1.36740000         
Si                    0.08940000           2.54510000          -1.00970000         
Si                   -1.37060000           2.00310000           1.88620000         
Si                    0.66790000          -0.38010000           2.47110000         
Si                   -1.96090000           0.44050000          -2.45410000         
Si                   -3.43280000          -0.00190000           0.42920000         
Si                   -1.38170000          -2.45420000           0.96460000         
Si                    0.05930000          -1.91470000          -1.87120000         
O                    -0.55720000           2.50500000           0.50700000         
O                    -0.38850000           0.93810000           2.71540000         
O                     1.70290000           1.89630000          -0.94540000         
O                    -0.86460000           1.64880000          -2.02160000         
O                    -2.74830000           1.19520000           1.37400000         
O                    -0.29260000          -1.65360000           1.94560000         
O                    -3.01710000           0.30350000          -1.16830000         
O                    -2.75020000          -1.47740000           0.83670000         
O                    -0.74010000          -2.63590000          -0.56550000         
O                    -1.13330000          -0.99950000          -2.68170000         
O                     1.29530000          -0.85980000           3.96590000         
O                    -1.75780000           3.38050000           2.76640000         
O                    -5.09110000           0.03210000           0.68260000         
O                    -1.77140000          -3.97450000           1.57090000         
O                     0.47140000           4.07630000          -1.59070000         
O                    -2.78050000           0.88700000          -3.85180000         
O                     0.64830000          -3.13240000          -2.88320000         
H                    -2.69920000           0.41650000          -4.69490000         
H                     2.41280000           2.50310000          -1.22960000         
H                    -0.13900000           4.80000000          -1.79090000         
H                    -2.40130000           3.40800000           3.48990000         
H                     1.74870000          -0.25530000           4.57250000         
H                    -1.82550000          -4.18150000           2.51600000         
H                     0.16200000          -3.95320000          -3.05710000         
H                    -5.72810000          -0.58000000           0.28630000         
