54

C                    -3.33928200           1.80378200           2.15617500         
C                    -2.68197400           0.66096600           2.45085300         
H                    -4.41994000           1.87964700           2.24121900         
H                    -2.78831000           2.67490600           1.81169600         
H                    -3.19327800          -0.20873300           2.85567300         
H                    -1.59520500           0.63833500           2.44006900         
C                    -4.47232900          -0.33893300          -0.50006800         
C                    -4.71395400           1.04374000          -1.15216500         
C                    -5.55178200          -0.76682200           0.50918600         
C                    -6.03391400           1.14721400          -1.93776100         
Ga                   -2.66270400          -0.37356400           0.26801900         
H                    -4.40804200          -1.09421100          -1.30009700         
H                    -4.69587600           1.82411700          -0.37475400         
H                    -3.87996700           1.26917500          -1.82861000         
H                    -5.64116700          -0.04451600           1.33153100         
H                    -5.32629800          -1.74587000           0.94895600         
H                    -6.54072900          -0.84274300           0.04046500         
H                    -6.08164600           0.37890500          -2.71961600         
H                    -6.91010200           1.02463200          -1.29114500         
H                    -6.11716900           2.12506300          -2.42618200         
O                    -1.36860300           0.63543300          -0.61576400         
O                    -1.83632200          -1.83051700           0.97046500         
Si                    0.90293700           2.66303500           1.39723400         
Si                    2.26509400           2.10360500          -1.44719900         
Si                   -0.51043300           0.46107400          -2.04961000         
Si                    1.89663800          -0.32665800           2.28233400         
Si                    3.55350900          -0.67156000          -0.53505600         
Si                    1.04228800          -2.36246000          -1.62469000         
Si                   -0.34554300          -2.50060200           1.29760500         
O                     1.92073100           2.77775300           0.04786000         
O                     0.83035100           1.46015000          -2.01559300         
O                    -0.70765900           2.68863300           0.89743000         
O                     1.25524300           1.21175200           2.15408800         
O                     3.37627700           0.84900000          -1.24275900         
O                     0.06238600          -1.11575400          -2.16416600         
O                     2.97785400          -0.54713500           1.03022200         
O                     2.59323800          -1.75761600          -1.36986800         
O                     0.42835900          -2.88094800          -0.15786900         
O                     0.62800400          -1.39539200           2.09755200         
O                    -1.54445400           0.82209000          -3.33341000         
O                     2.87329100           3.22630800          -2.53870700         
O                     5.14511100          -1.20324000          -0.59043900         
O                     1.08597800          -3.58456600          -2.77745700         
O                     1.20800000           3.90443100           2.49201700         
O                     2.74005300          -0.55853900           3.71877700         
O                    -0.43760200          -3.86945100           2.28255100         
H                     2.34521600          -0.55923000           4.60290600         
H                    -1.06445800           1.98509800           0.27696800         
H                     1.15510500           4.84606100           2.27174100         
H                     3.81156700           3.31072300          -2.76408900         
H                    -1.28168200           0.83877800          -4.26616600         
H                     1.87732800          -4.10592800          -2.97964800         
H                    -0.86157200          -4.69841500           2.01440500         
H                     5.81470000          -1.00418600           0.08065400         
