60

C                    -2.04629600           0.92731000          -2.73402300         
C                    -2.69741300           2.08518700          -2.49786000         
H                    -2.54168000           0.07242100          -3.18510900         
H                    -0.97397700           0.85163000          -2.58351800         
H                    -3.75865800           2.19382300          -2.70275500         
H                    -2.16611600           2.93786900          -2.08537100         
C                    -4.44479800          -0.16040700          -0.32677300         
C                    -5.17440300           1.18610900          -0.09530300         
C                    -4.82778700          -1.31170300           0.64591700         
C                    -4.44466100           2.19430800           0.82105100         
C                    -6.26126000          -1.83204200           0.43101800         
C                    -4.21620200           1.69711400           2.25348700         
Ga                   -2.48435800          -0.01269300          -0.43830000         
H                    -4.66556000          -0.52114100          -1.34383800         
H                    -6.17462000           0.99054400           0.31874800         
H                    -5.34873000           1.66959000          -1.06648000         
H                    -4.13368200          -2.15234400           0.50596000         
H                    -4.71054300          -0.98135300           1.68441400         
H                    -5.01549600           3.13253800           0.83495000         
H                    -3.46384400           2.43672300           0.38189300         
H                    -6.48759700          -2.64766300           1.12786400         
H                    -7.00947700          -1.04644900           0.58719300         
H                    -6.38604800          -2.21746300          -0.58850900         
H                    -3.54606100           0.83569700           2.25891600         
H                    -5.16030900           1.41368500           2.73583300         
H                    -3.73675100           2.46563100           2.86835200         
O                    -1.60895100          -1.49107900          -1.02231700         
O                    -1.26343100           0.85398300           0.66362500         
Si                    1.39369300           2.65741600          -1.22790300         
Si                    2.19467100          -0.38240200          -2.24613700         
Si                   -0.28864200          -2.38259300          -1.44284900         
Si                    2.54789700           1.87279600           1.62121600         
Si                    3.70520100          -0.95548900           0.58193700         
Si                    1.03452200          -2.52342500           1.43525800         
Si                   -0.35960400           0.41251600           2.01418100         
O                     1.68157900           1.18243800          -1.95605100         
O                     0.88940300          -1.39934700          -2.14308600         
O                    -0.23299200           2.81697400          -0.81582800         
O                     2.34548500           2.71554900           0.17639000         
O                     3.27792800          -0.75124800          -1.01706600         
O                     0.45439500          -3.03037500          -0.05712200         
O                     3.48018500           0.50804300           1.38024900         
O                     2.64786300          -2.07264900           1.25960600         
O                     0.17751100          -1.16920200           1.89706300         
O                     1.00656500           1.38197600           2.07288800         
O                    -0.72766100          -3.61760800          -2.50519700         
O                     2.88127300          -0.56961300          -3.76989600         
O                     5.30478600          -1.45341700           0.67810400         
O                     0.85647700          -3.69579800           2.62748200         
O                     1.84889200           3.86162200          -2.31306400         
O                     3.30884900           2.80891100           2.79020500         
O                    -1.31417300           0.58117000           3.39774100         
H                     3.10715000           3.73855300           2.97095700         
H                    -0.69665900           2.17471900          -0.20449000         
H                     1.72418500           4.80955800          -2.15981200         
H                     3.64701900          -0.07309500          -4.09494200         
H                    -0.08696200          -4.17633100          -2.97088900         
H                     1.16184900          -4.61164300           2.55044200         
H                    -1.06427000           0.23087400           4.26694200         
H                     5.87863500          -1.31421500           1.44581200         
