52

C                     3.99445100          -1.80072000          -1.71166200         
C                     3.32467100          -2.55929600          -0.82043200         
H                     5.05678800          -1.60007400          -1.60234300         
H                     3.49767400          -1.34402500          -2.56429800         
H                     3.82403600          -3.04384700           0.01490300         
H                     2.27719900          -2.80708300          -0.96866500         
C                     3.96120400           0.01766000           1.65107700         
C                     5.21109600           0.43676400           0.85209500         
C                     4.91470500           1.49735800          -0.18253200         
C                     5.61797000           2.62183500          -0.35320800         
Ga                    2.45663000          -0.62728800           0.58466800         
H                     3.53701400           0.88038100           2.17792900         
H                     4.19691800          -0.75619700           2.38976100         
H                     5.63485200          -0.45256900           0.35827400         
H                     5.98952500           0.80079700           1.53701900         
H                     4.04900700           1.29887200          -0.81606900         
H                     5.36037000           3.34829100          -1.11793000         
H                     6.47538900           2.86298300           0.27125100         
O                     1.17724200          -1.70137600           1.26204400         
O                     1.73120100           0.33695700          -0.81362600         
Si                   -0.22509800           2.56338900           1.39938400         
Si                   -2.17479100           0.05793600           2.31022300         
Si                   -0.26152600          -2.43781100           1.55976400         
Si                   -1.52250400           2.34948200          -1.57564100         
Si                   -3.55357300           0.01096200          -0.64018000         
Si                   -1.40788100          -2.26486700          -1.43521200         
Si                    0.75026200           0.11470400          -2.14457200         
O                    -1.11319400           1.31452400           2.07802400         
O                    -1.35256600          -1.40056700           2.33392600         
O                     1.37992300           2.12105900           1.11575200         
O                    -0.93372200           2.88230500          -0.10036400         
O                    -3.22290200           0.02095500           0.99680200         
O                    -1.00078300          -2.83995500           0.08492800         
O                    -2.85887500           1.37360800          -1.33567900         
O                    -2.80742900          -1.34313200          -1.29144100         
O                    -0.17289200          -1.27379300          -1.96158800         
O                    -0.31380800           1.40959000          -2.27577800         
O                    -0.03703600          -3.82236200           2.49720300         
O                    -2.99704600           0.34688100           3.74965300         
O                    -5.20998400          -0.00842400          -0.91177900         
O                    -1.60625600          -3.49591800          -2.56343200         
O                    -0.26710800           3.90067300           2.41818800         
O                    -1.98480600           3.62652500          -2.56377500         
O                     1.73259900          -0.02619200          -3.51653500         
H                     1.64407300           1.78206900           0.22276100         
H                    -0.84733800           3.96951800           3.19151600         
H                    -3.69999300          -0.21510100           4.10727500         
H                    -0.76121100          -4.31670200           2.90916000         
H                    -2.32808200          -4.14163300          -2.55234900         
H                     1.38905500          -0.05416100          -4.42308300         
H                    -5.66456700           0.58258100          -1.53036100         
H                    -1.53974000           4.48625000          -2.59444000         
