49

C                    -5.90425300          -0.16863400          -1.00465200         
C                    -4.68492900          -0.91267100          -0.55469800         
C                    -3.62749000          -1.23200800          -1.34062400         
H                    -4.65686600          -1.22732400           0.48945000         
H                    -6.78688700          -0.81752900          -0.92921400         
H                    -6.08926500           0.70255100          -0.36628400         
H                    -5.81528300           0.16884300          -2.04176400         
H                    -3.58568100          -0.96500100          -2.39357900         
H                    -2.81618900          -1.83651900          -0.94927100         
C                    -3.77128600           2.18873600           0.45025000         
C                    -4.27292700           2.36446800           1.68402800         
Ga                   -2.68353800           0.65950200          -0.01282800         
H                    -3.96152400           2.95877500          -0.29677400         
H                    -4.85200000           3.24580900           1.95659900         
H                    -4.11234900           1.64771800           2.48624600         
O                    -1.35349100           0.89007000          -1.27341100         
O                    -2.15750300          -0.44069400           1.31575100         
Si                    1.25434000           2.85952900           0.42318900         
Si                    2.56756700           1.07324100          -1.91245600         
Si                   -0.45815900          -0.07672100          -2.31046700         
Si                    1.68570700           0.29118800           2.44158000         
Si                    3.19505700          -1.37384600           0.08685200         
Si                    0.33635500          -2.73230800          -0.56600000         
Si                   -1.06254700          -1.43196000           2.04256600         
O                     2.28222900           2.28883100          -0.79743400         
O                     1.08251800           0.55129600          -2.47893200         
O                    -0.28439900           3.08975100          -0.21756600         
O                     1.31383700           1.69871500           1.62517400         
O                     3.32356400          -0.20051400          -1.11034300         
O                    -0.30319800          -1.59837800          -1.61550400         
O                     2.75001700          -0.60332800           1.50657200         
O                     1.97535400          -2.42845300          -0.35897100         
O                    -0.44255000          -2.52069100           0.89815800         
O                     0.28476400          -0.60004500           2.61841100         
O                    -1.25666200          -0.18360000          -3.79540600         
O                     3.47892800           1.57776300          -3.22986700         
O                     4.62038100          -2.24120000           0.27883000         
O                     0.10397500          -4.26711800          -1.21252100         
O                     1.80723500           4.30419600           1.09244400         
O                     2.42806300           0.60210000           3.91981700         
O                    -1.80763800          -2.26466300           3.30792200         
H                     2.25398600           1.38800000           4.45909000         
H                    -0.72820400           2.40140500          -0.78356300         
H                     1.57224300           5.17139500           0.72886500         
H                     4.43072200           1.75436900          -3.20887700         
H                    -0.82511100          -0.44046200          -4.62484900         
H                     0.69255100          -5.01912100          -1.04914900         
H                    -1.31419800          -2.78019900           3.96397900         
H                     5.32917900          -1.99664000           0.89221200         
