54

C                    -4.05058200          -2.29256700          -0.11010100         
C                    -4.40341500           0.97261700          -2.28168500         
C                    -3.84816900          -1.22870100          -1.14370600         
C                    -4.44252100          -0.00325300          -1.12767700         
H                    -3.20463300          -1.48139300          -1.98737500         
H                    -5.15626300           0.20801500          -0.32752800         
H                    -4.59940600          -1.92245100           0.76021100         
H                    -4.61325900          -3.12822900          -0.54915700         
H                    -3.09605000          -2.69983600           0.23462600         
H                    -5.35706400           0.93613500          -2.82540100         
H                    -4.27218600           2.00660000          -1.94482000         
H                    -3.59673000           0.73956800          -2.98215000         
C                    -3.50933300           2.30676900           1.04677000         
C                    -4.38337600           1.92152500           2.25312000         
Ga                   -2.59008000           0.77722400           0.23658200         
H                    -2.69568900           2.97488500           1.35723500         
H                    -4.08938900           2.84206400           0.28718400         
H                    -4.82583600           2.81100600           2.71980500         
H                    -5.21233100           1.26106900           1.96664100         
H                    -3.80052000           1.39680500           3.01741600         
O                    -1.30233000           1.03884100          -1.07598500         
O                    -1.96925800          -0.48384000           1.37676000         
Si                    1.45846100           2.81635800           0.59930000         
Si                    2.57557700           1.15655000          -1.93276500         
Si                   -0.50402900           0.10610000          -2.21232300         
Si                    1.92382900           0.10004100           2.40451900         
Si                    3.25123100          -1.42111700          -0.14181200         
Si                    0.31297500          -2.68323200          -0.73063500         
Si                   -0.88692600          -1.54439200           2.01245700         
O                     2.37067900           2.30519300          -0.73219900         
O                     1.05145600           0.68196900          -2.42960100         
O                    -0.12407500           3.11005700           0.10162300         
O                     1.58694300           1.58967000           1.72795600         
O                     3.37006000          -0.16943000          -1.26106600         
O                    -0.38060400          -1.47573200          -1.65783500         
O                     2.93967700          -0.73080300           1.35480900         
O                     1.95597600          -2.37801700          -0.58257900         
O                    -0.37731400          -2.61520900           0.79423500         
O                     0.52056300          -0.78407300           2.54022200         
O                    -1.37486400           0.12565900          -3.66371200         
O                     3.41312400           1.73495200          -3.26873600         
O                     4.63974600          -2.36578900          -0.10441600         
O                     0.03571200          -4.15409500          -1.49829900         
O                     2.09663600           4.20435000           1.31190600         
O                     2.67026600           0.27941100           3.90280400         
O                    -1.57168100          -2.40552100           3.29444300         
H                     2.83280300           1.13998300           4.31790800         
H                    -0.60664800           2.47806800          -0.50051500         
H                     1.88639700           5.09767600           1.00030100         
H                     4.37604500           1.82255300          -3.32061200         
H                    -0.99486700          -0.12620000          -4.51976200         
H                     0.52935800          -4.96715900          -1.31446700         
H                    -1.03737800          -2.84198000           3.97577400         
H                     5.40919600          -2.18449800           0.45530300         
