52

C                     4.13157700           2.39908200           0.38879900         
C                     4.43514900           1.21017300           1.16186100         
C                     5.06326900           3.01300300          -0.36838600         
C                     3.53099000           0.54176100           1.94388200         
H                     3.11987400           2.78955100           0.46778000         
H                     5.45246100           0.82336700           1.08385800         
H                     6.07905100           2.63308400          -0.45210700         
H                     4.83767000           3.91465900          -0.92730800         
H                     3.86149800          -0.26070400           2.59739100         
H                     2.55325000           0.98036300           2.13667100         
C                     4.09266700          -1.93601400          -0.54932800         
C                     4.84038500          -1.15860000          -1.64668900         
Ga                    2.69795300          -0.91314400           0.37764100         
H                     4.78185300          -2.33533500           0.20485400         
H                     3.55652900          -2.79343000          -0.97853200         
H                     5.58131900          -1.79385200          -2.14987100         
H                     4.15056800          -0.77736600          -2.40690100         
H                     5.38196400          -0.29665600          -1.23676000         
O                     1.58501900          -1.75667100           1.55713200         
O                     1.60180700           0.21654100          -0.62938600         
Si                   -0.58715800           2.77193800           1.14837600         
Si                   -2.20642500           0.18266200           2.25626900         
Si                    0.00268400          -2.22585700           1.75964200         
Si                   -1.72879200           2.09612700          -1.77061200         
Si                   -3.51822800          -0.36852500          -0.66779700         
Si                   -1.14928800          -2.48624800          -1.27132400         
Si                    0.77330100          -0.00001400          -2.07432700         
O                    -1.53839600           1.69179200           2.02022800         
O                    -1.00947800          -0.97334000           2.20347100         
O                     0.97918200           2.20348200           0.93056100         
O                    -1.32426000           2.92874000          -0.36891400         
O                    -3.24509500          -0.13038000           0.96906600         
O                    -0.58836400          -2.78293700           0.27292900         
O                    -2.95428900           1.00315800          -1.45903000         
O                    -2.62616300          -1.69076600          -1.16295600         
O                    -0.04513100          -1.47109600          -2.02286200         
O                    -0.37191100           1.21285900          -2.21493500         
O                    -0.18323500          -3.40765400           2.95741000         
O                    -3.02009800           0.20893700           3.72833400         
O                    -5.13159300          -0.66473200          -1.02529000         
O                    -1.30948200          -3.88744000          -2.18682700         
O                    -0.53024500           4.24610200           1.95782900         
O                    -2.23612800           3.15362100          -2.97373600         
O                     1.86685500          -0.00252200          -3.36266000         
H                     1.21875200           1.47470600           0.27518900         
H                    -1.14609200           4.47865100           2.66934200         
H                    -3.28647900          -0.58413800           4.21710300         
H                     0.38856100          -4.18708500           3.02645300         
H                    -2.14144900          -4.37506200          -2.28166500         
H                     1.63351400          -0.26174400          -4.26746200         
H                    -5.81657000           0.01735600          -1.08411700         
H                    -1.96434100           4.08192800          -3.02773300         
