52

C                    -4.80344000          -1.19845000           0.33692000         
C                    -5.09927000          -2.70022000           0.52926000         
C                    -3.93888000          -0.93139000          -0.86995000         
C                    -4.23583000          -0.09643000          -1.87736000         
H                    -4.29007000          -0.82829000           1.23542000         
H                    -5.74412000          -0.63766000           0.25029000         
H                    -3.00841000          -1.49881000          -0.90917000         
H                    -5.70595000          -2.86562000           1.42683000         
H                    -5.63980000          -3.11108000          -0.33131000         
H                    -4.16685000          -3.26622000           0.64361000         
H                    -5.16405000           0.47188000          -1.88817000         
H                    -3.57443000           0.03708000          -2.72853000         
C                    -3.24256000           2.94332000          -0.21763000         
C                    -4.31299000           2.80690000           0.88164000         
Ga                   -1.78243000           1.64459000          -0.07943000         
H                    -2.62493000           3.90665000          -0.02774000         
H                    -4.23116000           3.85713000           1.53703000         
H                    -4.95089000           2.06771000           0.66979000         
O                    -0.87775000           0.86365000          -1.44286000         
O                    -1.67908000           0.46811000           1.30850000         
Si                    1.47953000           2.57022000           0.57870000         
Si                    2.65474000           0.82924000          -1.90311000         
Si                   -0.27537000          -0.17650000          -2.54725000         
Si                    1.83200000          -0.02456000           2.59187000         
Si                    3.08215000          -1.67890000           0.13558000         
Si                    0.07732000          -2.68831000          -0.58700000         
Si                   -1.15050000          -0.95722000           1.92193000         
O                     2.14757000           2.03106000          -0.83707000         
O                     1.36007000           0.24578000          -2.79260000         
O                    -0.22791000           2.87695000           0.41588000         
O                     1.67788000           1.41556000           1.73964000         
O                     3.25741000          -0.40933000          -0.94831000         
O                    -0.25862000          -1.76919000          -1.95476000         
O                     2.82899000          -0.99316000           1.65268000         
O                     1.73069000          -2.54798000          -0.30020000         
O                    -0.74879000          -2.07093000           0.71559000         
O                     0.31867000          -0.71407000           2.75666000         
O                    -1.11334000          -0.16091000          -4.01309000         
O                     3.83580000           1.50489000          -2.88874000         
O                     4.41276000          -2.70193000           0.14638000         
O                    -0.35399000          -4.30324000          -0.78405000         
O                     1.96171000           4.12538000           1.00155000         
O                     2.54174000           0.27118000           4.08624000         
O                    -2.28618000          -1.64665000           2.96436000         
H                     2.15698000          -0.00392000           4.93161000         
H                    -0.49967000           3.79907000           0.58155000         
H                     2.86614000           4.46204000           1.07257000         
H                     3.99927000           1.23896000          -3.80563000         
H                    -1.08027000          -0.88351000          -4.65803000         
H                     0.15577000          -4.94124000          -1.30533000         
H                    -2.22977000          -2.56139000           3.28033000         
H                     5.24252000          -2.52453000           0.61305000         
