46

C                     3.83566000           1.85313000          -0.97819000         
C                     4.22217000           0.75167000          -1.65663000         
H                     4.39149000           2.22047000          -0.12053000         
H                     2.93203000           2.39489000          -1.24040000         
H                     3.68398000           0.41089000          -2.53837000         
H                     5.15190000           0.24205000          -1.41860000         
C                     4.09162000          -2.06160000           0.23656000         
C                     5.12604000          -1.74067000           1.07439000         
Ga                    2.79371000          -0.64500000          -0.12294000         
H                     4.35234000          -2.59776000          -0.67382000         
H                     4.82862000          -1.26721000           1.97888000         
H                     6.02456000          -2.08417000           0.69711000         
O                     1.43669000          -0.86517000          -1.35443000         
O                     2.20582000           0.41190000           1.21742000         
Si                   -1.02899000          -2.86376000           0.50476000         
Si                   -2.45124000          -1.14955000          -1.85461000         
Si                    0.51281000           0.09965000          -2.36197000         
Si                   -1.54401000          -0.30226000           2.50637000         
Si                   -3.12020000           1.28517000           0.13572000         
Si                   -0.30573000           2.71092000          -0.58510000         
Si                    1.16656000           1.42405000           1.99164000         
O                    -2.04060000          -2.32758000          -0.74028000         
O                    -1.02648000          -0.54283000          -2.48894000         
O                     0.53449000          -3.01371000          -0.11492000         
O                    -1.15776000          -1.72123000           1.71565000         
O                    -3.25429000           0.08363000          -1.03378000         
O                     0.36247000           1.62732000          -1.67277000         
O                    -2.62792000           0.55395000           1.55973000         
O                    -1.92932000           2.34812000          -0.36269000         
O                     0.48992000           2.50203000           0.86956000         
O                    -0.15140000           0.60906000           2.65941000         
O                     1.29916000           0.21456000          -3.85226000         
O                    -3.38807000          -1.72982000          -3.12126000         
O                    -4.55621000           2.13084000           0.34112000         
O                    -0.12181000           4.26066000          -1.21244000         
O                    -1.52806000          -4.33367000           1.16008000         
O                    -2.27711000          -0.59209000           3.99300000         
O                     1.97892000           2.27338000           3.20384000         
H                    -2.05030000          -1.33190000           4.57601000         
H                     0.87238000          -2.35748000          -0.78582000         
H                    -1.28887000          -5.18984000           0.77397000         
H                    -4.34434000          -1.87603000          -3.07945000         
H                     0.90231000           0.58296000          -4.65635000         
H                    -0.69729000           5.00848000          -0.99281000         
H                     1.51898000           2.75951000           3.90531000         
H                    -5.25035000           1.88467000           0.97039000         
