54

C                     2.94603600          -3.63123400           0.99029500         
C                     2.33441000          -3.73182600          -0.19605200         
H                     2.39318300          -3.50997200           1.91807500         
H                     4.02931900          -3.66464700           1.07932500         
H                     1.25263100          -3.70630000          -0.28644900         
H                     2.88567900          -3.85030200          -1.12525300         
C                     4.24255400          -0.39642800           0.08714200         
C                     5.20039600           0.81053300          -0.02405700         
C                     5.07261700           1.77102400           1.17503200         
C                     5.07735500           1.53834000          -1.37745300         
Ga                    2.29541300          -0.19159500          -0.07016800         
H                     4.48859700          -1.13151700          -0.69070800         
H                     4.39483900          -0.89976000           1.05093100         
H                     6.22459000           0.40374700           0.01602900         
H                     4.07068500           2.21529700           1.25325200         
H                     5.25232600           1.24062200           2.11724000         
H                     5.79483300           2.59273800           1.10443600         
H                     4.08333000           1.98485800          -1.52443000         
H                     5.23282400           0.84223000          -2.20949500         
H                     5.81640600           2.34348200          -1.46358500         
O                     1.12133300          -0.55745200           1.26490500         
O                     1.44350000          -0.67870700          -1.60726800         
Si                    0.33336000           2.62097900           0.03172500         
Si                   -1.60919800           1.44357000           2.34723400         
Si                    0.04340000          -1.23763800           2.28277100         
Si                   -1.63662200           1.36755300          -2.31682200         
Si                   -3.57693500           0.30228800           0.00620500         
Si                   -1.85528700          -2.45544600           0.00151800         
Si                    0.12146900          -1.29242300          -2.35669000         
O                    -0.47110100           2.29073800           1.44063600         
O                    -0.94583700           0.00889500           2.90549700         
O                     1.86222900           1.78860000          -0.07407300         
O                    -0.59243300           2.13339000          -1.24234700         
O                    -2.86877000           1.06935100           1.30880400         
O                    -1.00272700          -2.27821200           1.44086600         
O                    -3.00136300           0.99865700          -1.41565900         
O                    -3.07864100          -1.29510300           0.01525200         
O                    -0.86832600          -2.16836400          -1.30233300         
O                    -0.88386700          -0.01299000          -2.88244400         
O                     0.76290100          -2.08353600           3.55556200         
O                    -2.08518000           2.47074200           3.58755500         
O                    -5.24391900           0.46801900           0.11931100         
O                    -2.49563100          -4.00554300          -0.15295600         
O                     0.92134800           4.19547200          -0.04625300         
O                    -2.05613000           2.39409500          -3.58030900         
O                     0.52950100          -2.25927000          -3.68013500         
H                    -1.78932500           2.24909900          -4.50042300         
H                     2.64412200           2.37008600          -0.13431400         
H                     0.43296700           5.01114100           0.13523100         
H                    -2.72969200           2.24857200           4.27531000         
H                     0.26862600          -2.47806700           4.28972100         
H                    -3.04973900          -4.43366100           0.51646500         
H                    -0.10647100          -2.84742100          -4.11598300         
H                    -5.84544600           0.48215200          -0.63967900         
