54

C          3.63569        2.38556        0.86854
C          4.48917        1.50780        1.43544
H          2.61963        2.49510        1.24398
H          3.96536        3.12708        0.14561
H          4.15169        0.80253        2.19168
H          5.53666        1.47116        1.15189
C          3.88371        0.07268       -1.88966
C          5.00900       -0.66691       -1.14410
C          4.51654       -1.85098       -0.28748
H          5.34641       -2.30597        0.29382
Ga         2.48880        0.86554       -0.77004
H          4.28092        0.84881       -2.55289
H          3.30531       -0.63212       -2.50221
H          5.56292        0.03591       -0.50524
C          6.03288       -1.18709       -2.16240
H          4.06698       -2.60468       -0.94799
H          3.71264       -1.50122        0.37171
H          1.37064       -1.47003       -0.70986
Si        -0.49741       -2.46165       -1.72687
Si        -2.40334        0.16397       -2.10417
Si        -0.32435        2.57216       -1.26808
Si        -1.38026       -2.53318        1.39263
Si        -3.43930       -0.06484        0.98269
Si        -1.18366        2.06944        1.84721
Si         0.95376       -0.34465        1.95628
O         -1.54286       -1.25288       -2.24398
O         -1.33650        1.44582       -2.00673
O          1.27632        2.10025       -1.34010
O          1.08500       -1.90588       -1.55659
O         -1.04468       -2.93855       -0.19834
O         -3.26974        0.12499       -0.66393
O         -0.82584        2.66169        0.33095
O          1.60232       -0.21421        0.42883
O         -2.69659       -1.50001        1.44322
O         -2.61193        1.18918        1.73703
O          0.04796        1.02805        2.30450
O         -0.06451       -1.67575        1.99604
O         -0.58533        4.10254       -1.93990
O         -3.43932        0.25855       -3.42717
O         -5.07241       -0.06503        1.37183
O         -1.27749        3.27874        3.00991
O         -0.55021       -3.73502       -2.82432
O         -1.68892       -3.90443        2.31245
O          2.23448       -0.47693        3.05719
H         -1.16881       -3.76254       -3.57013
H         -4.20820        0.84571       -3.47850
H         -0.26061        4.36828       -2.81322
H         -1.86173        4.04942        2.95499
H          2.11166       -0.64205        4.00517
H         -5.44083       -0.40583        2.20017
H         -1.54620       -4.80913        1.99653
H          6.44738       -0.34506       -2.75721
H          5.56282       -1.91579       -2.85783
H          6.87813       -1.68538       -1.64058
