54

C                     3.23298000           3.13692100           0.83807700         
C                     2.96148500           2.19488900           1.76850500         
H                     4.24914500           3.36668000           0.52834600         
H                     2.42095800           3.68293700           0.36656900         
H                     1.93924800           2.06006100           2.10985400         
H                     3.75044200           1.68757800           2.31887200         
C                     4.45694200          -0.14302000          -0.49149200         
C                     5.58235900          -0.00428300           0.54949100         
C                     4.33826800          -1.61685600          -0.95077700         
C                     4.69529000           0.78495700          -1.69811700         
Ga                    2.70325600           0.30781700           0.31237900         
H                     6.54687900          -0.30707500           0.11399900         
H                     5.69724500           1.03192500           0.89328500         
H                     5.40425200          -0.63905800           1.42664300         
H                     3.54354900          -1.75374100          -1.69450700         
H                     5.28014900          -1.94718700          -1.41475100         
H                     4.13155900          -2.28538700          -0.10628700         
H                     4.73424200           1.84071900          -1.39749000         
H                     5.65856800           0.55257800          -2.17799600         
H                     3.90913700           0.68443700          -2.45409100         
O                     1.95760700          -0.69608300           1.63514100         
O                     1.31682600           0.86003900          -0.80566200         
Si                   -1.47696600           2.76911000           0.78483200         
Si                   -2.11189600          -0.05597900           2.33506400         
Si                    0.68779600          -1.71676700           1.98325900         
Si                   -2.46223900           1.36524800          -1.93257900         
Si                   -3.28410300          -1.36748900          -0.41993500         
Si                   -0.38477900          -2.65872700          -0.95938200         
Si                    0.58453900           0.19066200          -2.16051800         
O                    -1.85661200           1.50655700           1.82792000         
O                    -0.64718000          -0.83909400           2.51648800         
O                     0.16929100           2.83893100           0.45849000         
O                    -2.31291700           2.44036500          -0.65242400         
O                    -2.96190900          -0.87057600           1.13710300         
O                     0.20318300          -2.52896600           0.59664000         
O                    -3.24287600          -0.02705600          -1.43306800         
O                    -2.04582200          -2.39729300          -0.90097600         
O                     0.31619500          -1.44828600          -1.88152000         
O                    -0.90246300           0.92577600          -2.37806600         
O                     1.09585200          -2.90000600           3.12012400         
O                    -2.98552300           0.01405300           3.77229300         
O                    -4.78451600          -2.11919900          -0.46347800         
O                    -0.01202900          -4.12953500          -1.68124500         
O                    -1.95581800           4.23350700           1.46014100         
O                    -3.32764200           2.04057700          -3.20387600         
O                     1.59804100           0.37732000          -3.49841900         
H                    -2.62393600           4.30381300           2.15860300         
H                    -3.40186700          -0.75167800           4.19533100         
H                     1.54994100          -2.70937100           3.95441000         
H                    -0.24029200          -4.99576400          -1.31261900         
H                     1.42999900          -0.01683600          -4.36807600         
H                    -5.32699700          -2.21644600          -1.25996600         
H                    -3.38440800           2.99185800          -3.37791800         
H                     0.62084900           2.14890300          -0.11529900         
