51

C                     3.50042900          -3.37095200          -0.38105600         
C                     3.02041400          -3.16801500           0.85208100         
H                     4.56751500          -3.35204600          -0.59037400         
H                     2.84972700          -3.56412800          -1.22961200         
H                     3.66966500          -2.97546800           1.70231000         
H                     1.95624700          -3.19662500           1.06615400         
C                     4.30804000           0.24966800          -0.79428200         
C                     4.92992500           1.64294700          -0.56332200         
C                     4.84524200           2.11600200           0.89811400         
Ga                    2.40080000           0.07009100          -0.37658700         
H                     4.82866400          -0.48874800          -0.17215900         
H                     4.44331800          -0.06858500          -1.83607400         
H                     5.98537400           1.62412100          -0.87239800         
H                     4.46155900           2.39380500          -1.22452800         
H                     5.30173000           3.10413700           1.02643000         
H                     3.80639800           2.17127000           1.24652200         
H                     5.37098300           1.41430100           1.55669500         
O                     1.77908900           0.06003300           1.33777400         
O                     1.21958700          -0.88210200          -1.36737300         
Si                    0.08937600           2.54513900          -1.00974800         
Si                   -1.37063900           2.00308500           1.88623500         
Si                    0.66794600          -0.38013400           2.47110900         
Si                   -1.96091500           0.44047000          -2.45406700         
Si                   -3.43275300          -0.00189200           0.42924300         
Si                   -1.38173000          -2.45419500           0.96459700         
Si                    0.05927200          -1.91469700          -1.87122300         
O                    -0.55724700           2.50502600           0.50699100         
O                    -0.38846800           0.93808300           2.71544600         
O                     1.70290900           1.89628300          -0.94544800         
O                    -0.86462700           1.64884900          -2.02160200         
O                    -2.74830000           1.19517600           1.37397400         
O                    -0.29255600          -1.65359100           1.94562500         
O                    -3.01706500           0.30349100          -1.16829100         
O                    -2.75023600          -1.47738400           0.83668300         
O                    -0.74008400          -2.63586200          -0.56546300         
O                    -1.13326500          -0.99945100          -2.68171000         
O                     1.29527000          -0.85977700           3.96588700         
O                    -1.75779600           3.38045400           2.76637600         
O                    -5.09108800           0.03206300           0.68264300         
O                    -1.77141300          -3.97453700           1.57089200         
O                     0.47139300           4.07631700          -1.59067800         
O                    -2.78047400           0.88696100          -3.85179300         
O                     0.64830200          -3.13244700          -2.88321900         
H                    -2.69916100           0.41653500          -4.69489300         
H                     2.41277100           2.50311800          -1.22962600         
H                    -0.13895300           4.80000500          -1.79091200         
H                    -2.40126000           3.40802700           3.48990400         
H                     1.74867700          -0.25529700           4.57251200         
H                    -1.82550100          -4.18148000           2.51602900         
H                     0.16198700          -3.95321400          -3.05708000         
H                    -5.72809400          -0.58000000           0.28631900         
