12

C                     0.97610000          -0.38945000          -2.50517000         
C                     0.74043000           0.58155000          -1.35492000         
C                     1.84482000           1.59230000          -1.28835000         
O                     0.86002000           4.44822000           0.02603000         
O                    -0.15243000           3.95445000          -0.20840000         
O                     2.53748000           1.68775000          -0.28787000         
H                     2.02922000           2.24956000          -2.13222000         
H                     1.93381000          -0.93352000          -2.35860000         
H                     1.01082000           0.15734000          -3.47190000         
H                     0.14853000          -1.12864000          -2.54416000         
H                    -0.22471000           1.10964000          -1.50837000         
H                     0.68511000           0.01092000          -0.40206000         
