12

C                     0.78072000           0.09343000          -2.48567000         
C                    -0.12906000           0.92749000          -1.58407000         
C                     2.94872000           2.16649000           0.07174000         
O                     2.60946000           3.31266000           0.06599000         
O                    -0.00065000           2.30136000          -1.84441000         
O                     3.28720000           1.01815000           0.07636000         
H                     0.96624000           2.51221000          -1.90913000         
H                     1.84676000           0.31940000          -2.27117000         
H                     0.56848000           0.32031000          -3.55141000         
H                     0.60394000          -0.98675000          -2.30085000         
H                    -1.18086000           0.63791000          -1.78961000         
H                     0.08825000           0.71743000          -0.51379000         
