12

C                     1.08211000           0.11368000          -2.57140000         
C                     0.71637000           1.30103000          -1.68235000         
C                     1.74161000           1.47784000          -0.58771000         
O                     1.38745000           1.38299000           0.71207000         
O                     0.65067000           2.46152000          -2.46783000         
O                     2.90407000           1.71691000          -0.87323000         
H                     0.20783000           3.15669000          -1.91373000         
H                     1.12648000          -0.81821000          -1.96766000         
H                     2.06779000           0.27664000          -3.05811000         
H                     0.31364000          -0.01541000          -3.36303000         
H                    -0.28641000           1.08958000          -1.24486000         
H                     0.47758000           1.19684000           0.98185000         
