12

C                     0.19110000           1.05651000          -2.31211000         
C                     0.64027000           0.58046000          -0.92799000         
C                     1.92388000           1.23983000          -0.49667000         
O                     3.06189000           1.07250000          -1.20383000         
O                    -0.07891000           2.43312000          -2.30327000         
O                     1.94335000           1.92688000           0.51207000         
H                     0.78186000           2.89647000          -2.47597000         
H                     3.09235000           0.52184000          -1.99835000         
H                     0.94590000           0.80561000          -3.09217000         
H                    -0.74097000           0.52200000          -2.59257000         
H                    -0.16620000           0.80427000          -0.19525000         
H                     0.79468000          -0.51939000          -0.94989000         
