12

C                     1.33012000           0.71245000          -2.83446000         
C                     0.30785000           0.56217000           0.11591000         
C                     1.57315000           0.87962000           0.20231000         
O                     1.66310000           2.03467000          -2.47099000         
O                     0.53864000           2.65903000          -2.17067000         
O                     2.73601000           1.16174000           0.23160000         
H                     0.80625000           3.60226000          -2.02165000         
H                     2.05710000           0.02124000          -2.35570000         
H                     1.38814000           0.59754000          -3.93025000         
H                     0.31992000           0.37949000          -2.50004000         
H                    -0.37251000           1.21563000          -0.41908000         
H                     0.04141000          -0.48574000           0.11702000         
