12

C                     0.65989000           1.02086000          -3.37935000         
C                     1.22885000           0.57025000           0.08174000         
C                     1.46257000           1.93258000          -0.50354000         
O                     0.85239000           2.31108000          -1.65206000         
O                    -0.00042000           1.53923000          -2.25494000         
O                     2.21726000           2.71112000           0.05728000         
H                     1.54972000          -0.20507000          -0.64513000         
H                     1.63657000           0.56392000          -3.10248000         
H                     0.79123000           1.80864000          -4.15153000         
H                     0.03588000           0.21022000          -3.80809000         
H                     0.14884000           0.43915000           0.30118000         
H                     1.80643000           0.43812000           1.02093000         
