12

C                     1.14922000          -0.36556000          -2.34638000         
C                     1.10951000           0.05025000          -0.93103000         
C                     2.09095000           0.76317000          -0.49505000         
O                     0.42188000           2.69701000          -1.06944000         
O                     0.29125000           3.97605000          -1.28331000         
O                     3.02014000           1.41966000          -0.15397000         
H                     0.83679000           4.11919000          -2.09192000         
H                     2.06483000          -0.95549000          -2.32013000         
H                     1.26695000           0.45566000          -3.10869000         
H                     0.26615000          -0.98361000          -2.58466000         
H                    -0.42441000           2.30867000          -1.39006000         
H                     0.29595000          -0.14490000          -0.26136000         
