12

C                     0.23295000          -0.31434000          -2.53597000         
C                    -0.35363000           0.03719000          -1.39407000         
C                     2.62125000           1.71686000          -0.71793000         
O                     1.78924000           2.77487000          -0.64087000         
O                     1.04313000           3.10147000          -1.64594000         
O                     3.31956000           1.42306000           0.23794000         
H                     1.30186000           4.03366000          -1.85849000         
H                     2.67211000           1.11923000          -1.62281000         
H                     0.29127000           0.38948000          -3.36000000         
H                     0.65864000          -1.30597000          -2.64894000         
H                    -0.77781000           1.02930000          -1.28016000         
H                    -0.40940000          -0.66471000          -0.56876000         
