12

C                     0.69455000           0.15513000          -2.88989000         
C                    -0.39716000           0.31790000          -2.14602000         
C                     2.40090000           1.35399000          -0.11913000         
O                     2.12212000           2.61167000          -0.51655000         
O                     0.90150000           2.97976000          -0.73641000         
O                     3.55822000           1.02248000           0.07741000         
H                     0.90597000           3.31751000          -1.66797000         
H                     1.42284000          -0.60695000          -2.63183000         
H                     0.86452000           0.78522000          -3.75665000         
H                     1.60459000           0.63144000           0.02942000         
H                    -1.12381000           1.08211000          -2.40128000         
H                    -0.56504000          -0.31016000          -1.27709000         
