12

C                     0.71452000           0.02071000          -2.59947000         
C                     0.54866000           1.17705000          -1.94862000         
C                     1.66700000           1.87468000          -1.26355000         
O                     1.48016000           3.07875000          -0.67169000         
O                     0.34300000           3.69618000          -0.70885000         
O                     2.77887000           1.37127000          -1.23247000         
H                     0.41280000           4.30658000          -1.48752000         
H                     1.98110000          -1.51226000          -0.37431000         
H                     1.68472000          -0.46230000          -2.65993000         
H                    -0.13225000          -0.45236000          -3.08576000         
H                    -0.44330000           1.61717000          -1.92818000         
H                     1.35393000          -1.37538000          -0.07565000         
