12

C                     0.11797000          -0.13140000          -1.88788000         
C                     0.80378000          -0.01914000          -0.74342000         
C                     1.44498000           1.21808000          -0.21104000         
O                     1.32938000           2.45558000          -0.75831000         
O                     0.53586000           2.74667000          -1.73511000         
O                     2.11981000           1.10744000           0.79935000         
H                     0.50492000           3.73634000          -1.74391000         
H                     2.67222000           1.56905000          -3.22605000         
H                    -0.04584000           0.68273000          -2.57665000         
H                    -0.29558000          -1.09642000          -2.16359000         
H                     2.28584000           1.99311000          -3.64091000         
H                     0.91586000          -0.92192000          -0.14846000         
