12
Image 81
C                     0.39129000          -0.09597000           0.35824000         
C                    -0.74673000           0.88621000           0.08679000         
C                    -2.10645000           0.23675000          -0.04880000         
O                     1.54570000           0.47947000          -0.26125000         
O                     2.65897000          -0.41717000           0.01243000         
O                    -2.31224000          -0.95848000          -0.06686000         
H                     2.84735000          -0.74698000          -0.88540000         
H                     0.17556000          -1.07482000          -0.08365000         
H                     0.57475000          -0.22386000           1.43113000         
H                    -2.95172000           0.95044000          -0.15570000         
H                    -0.55909000           1.41444000          -0.86226000         
H                    -0.80775000           1.67558000           0.84809000         
