12
Image 81
C                     0.39126000          -0.42738000          -0.90310000         
C                    -0.56969000          -1.01747000           0.12499000         
C                    -1.68726000          -0.08435000           0.54445000         
O                     1.23063000           0.58212000          -0.35088000         
O                     2.12565000          -0.09020000           0.59480000         
O                    -1.98771000           0.93888000          -0.03263000         
H                     2.97619000           0.28123000           0.30038000         
H                     1.00885000          -1.21031000          -1.36058000         
H                    -0.15497000           0.11251000          -1.68384000         
H                    -2.26495000          -0.41137000           1.43675000         
H                    -0.02387000          -1.34764000           1.01801000         
H                    -1.04696000          -1.92427000          -0.28186000         
