12
Image 81
C                    -0.20390000          -1.93949000          -0.46531000         
C                     2.06225000           0.76214000           0.57190000         
C                     0.99926000           1.22305000          -0.04943000         
O                    -0.56107000          -0.96130000           0.50609000         
O                    -1.85431000          -0.43026000           0.11711000         
O                     0.07590000           1.66849000          -0.62682000         
H                    -1.59347000           0.44630000          -0.23275000         
H                    -0.96373000          -2.72644000          -0.51573000         
H                     0.74299000          -2.35343000          -0.10387000         
H                    -0.06147000          -1.48474000          -1.45359000         
H                     3.01871000           1.25214000           0.42969000         
H                     1.96111000          -0.07284000           1.25314000         
