12
Image 1
C                     1.36751000          -1.61178000          -0.62113000         
C                     1.55906000          -0.24615000           0.07980000         
C                     0.24068000           0.48086000           0.04849000         
O                    -0.68806000          -0.21995000           0.75690000         
O                    -2.03099000           0.09423000           0.32608000         
O                    -0.05167000           1.46758000          -0.59704000         
H                    -1.88862000           0.96617000          -0.11646000         
H                     0.79737000          -1.50050000          -1.55002000         
H                     0.82789000          -2.30855000           0.02536000         
H                     2.33896000          -2.04867000          -0.87390000         
H                     2.28693000           0.38160000          -0.44066000         
H                     1.89874000          -0.38979000           1.11171000         
