12
Image 81
C                     0.29019000          -0.50878000          -0.11294000         
C                    -0.41837000           0.63186000          -0.00181000         
C                    -1.88322000           0.56096000           0.00289000         
O                     1.62142000          -0.67244000          -0.14616000         
O                     2.28549000           0.62096000          -0.06887000         
O                    -2.54449000          -0.46369000          -0.10756000         
H                     3.20548000           0.30382000          -0.00548000         
H                     1.02866000          -1.20078000           3.41693000         
H                    -0.18242000          -1.48523000          -0.19407000         
H                    -2.39692000           1.53777000           0.11678000         
H                     0.06464000           1.59816000           0.08223000         
H                     0.60731000          -0.72231000           3.03540000         
