12
Image 68
C                    -1.12624000          -0.44235000          -0.38970000         
C                    -0.09482000          -1.15400000           0.49368000         
C                     1.30824000          -0.59982000           0.30005000         
O                    -1.52094000           0.82739000           0.12942000         
O                    -0.31741000           1.62636000           0.29550000         
O                     1.88862000          -0.64181000          -0.76622000         
H                    -0.34432000           2.18871000          -0.50170000         
H                    -2.07394000          -0.99211000          -0.40911000         
H                    -0.74625000          -0.34001000          -1.41513000         
H                     1.80115000          -0.16291000           1.19132000         
H                    -0.06899000          -2.21201000           0.19923000         
H                    -0.40000000          -1.09408000           1.54406000         
