12
Image 1
C                    -1.20986000           0.62991000           0.49103000         
C                    -0.09479000           1.25274000          -0.34654000         
C                     0.85045000           0.06151000          -0.42966000         
O                    -1.32231000          -0.71298000           0.01084000         
O                     0.01245000          -1.06750000          -0.55630000         
O                     1.63008000           0.03457000           0.74940000         
H                     2.05815000          -0.83506000           0.81296000         
H                    -0.95584000           0.63224000           1.55818000         
H                    -2.18991000           1.08977000           0.32988000         
H                     1.48701000           0.03566000          -1.32373000         
H                     0.37700000           2.11609000           0.12733000         
H                    -0.45059000           1.52112000          -1.34571000         
