12
Image 1
C                    -0.34573000          -1.18645000          -0.41348000         
C                     0.71301000          -0.55754000           0.41109000         
C                     1.63834000           0.43172000          -0.22282000         
O                    -0.66407000          -0.14345000           0.50782000         
O                    -3.33451000           0.75151000          -0.29971000         
O                     2.82851000           0.46125000           0.00641000         
H                    -3.95432000           1.01892000           0.39456000         
H                    -0.44944000          -0.91769000          -1.46400000         
H                    -0.69871000          -2.17767000          -0.13475000         
H                     1.15755000           1.13860000          -0.93166000         
H                     1.10294000          -1.08801000           1.27832000         
H                    -2.46724000           0.67884000           0.13451000         
