12
Image 1
C                    -0.40947000          -0.74470000          -0.18663000         
C                     0.47319000          -0.07599000           0.86823000         
C                     1.89049000           0.18703000           0.41882000         
O                    -1.79648000          -0.47026000           0.01803000         
O                    -1.98028000           0.95455000          -0.24476000         
O                     2.30455000           0.02423000          -0.71120000         
H                    -2.53982000           0.91259000          -1.04156000         
H                    -0.36180000          -1.83787000          -0.12458000         
H                    -0.11296000          -0.43887000          -1.19515000         
H                     2.56850000           0.57915000           1.20809000         
H                     0.04463000           0.90394000           1.12791000         
H                     0.49808000          -0.64461000           1.80838000         
