12
Image 81
C                     0.10054000          -1.44616000          -0.48776000         
C                     1.13080000          -0.92272000           0.19382000         
C                     1.96584000           0.13313000          -0.39589000         
O                    -1.89702000           0.36570000           0.43265000         
O                    -3.20893000           0.75989000          -0.05599000         
O                     2.88104000           0.69512000           0.18273000         
H                    -3.74147000           0.65332000           0.75302000         
H                    -0.13729000          -1.11421000          -1.49645000         
H                    -0.54863000          -2.20586000          -0.06456000         
H                     1.70490000           0.41391000          -1.44084000         
H                    -1.41573000           1.21197000           0.37524000         
H                     1.37583000          -1.23320000           1.20737000         
