12
Image 1
C                     3.13081000           0.27848000           0.00002000         
C                    -1.44150000          -1.37856000           0.00001000         
C                    -1.44438000           0.14010000          -0.00000000         
O                     2.27790000          -0.58699000          -0.00001000         
O                    -0.22232000           0.72989000          -0.00002000         
O                    -2.44551000           0.81810000           0.00001000         
H                     0.51154000           0.07743000          -0.00002000         
H                     2.86752000           1.35153000           0.00004000         
H                     4.20467000           0.01987000           0.00002000         
H                    -0.92063000          -1.76424000           0.88474000         
H                    -2.47019000          -1.74169000           0.00003000         
H                    -0.92066000          -1.76425000          -0.88473000         
