12
Image 1
C                    -0.34575000          -1.18644000          -0.41351000         
C                     0.71301000          -0.55758000           0.41107000         
C                     1.63831000           0.43173000          -0.22280000         
O                    -0.66407000          -0.14351000           0.50787000         
O                    -3.33445000           0.75157000          -0.29971000         
O                     2.82848000           0.46127000           0.00640000         
H                    -3.95429000           1.01893000           0.39455000         
H                    -0.44950000          -0.91762000          -1.46401000         
H                    -0.69872000          -2.17769000          -0.13483000         
H                     1.15750000           1.13865000          -0.93159000         
H                    -2.46720000           0.67886000           0.13454000         
H                     1.10297000          -1.08809000           1.27826000         
