12
Image 68
C                     0.64383000          -0.77187000          -0.58013000         
C                    -0.58192000           0.10677000          -0.61676000         
C                    -1.66175000          -0.12673000           0.10274000         
O                     1.86702000          -0.04320000          -0.53483000         
O                     1.95877000           0.60272000           0.77333000         
O                    -2.63145000          -0.35330000           0.72212000         
H                     2.85040000           0.30731000           1.03218000         
H                     0.59874000          -1.49513000           0.24283000         
H                     0.76242000          -1.31764000          -1.52604000         
H                    -1.58245000           4.03194000          -0.61112000         
H                    -0.61809000           0.94101000          -1.31197000         
H                    -1.91705000           3.68793000          -0.04378000         
