12
Image 81
C                    -0.82402000          -0.28995000          -0.97300000         
C                     1.72963000           1.31988000           0.37877000         
C                     1.95105000           0.03243000           0.21770000         
O                    -1.81917000           0.51585000          -0.36777000         
O                    -2.36363000          -0.35360000           0.68308000         
O                     2.13580000          -1.11451000           0.05743000         
H                    -3.08387000           0.21864000           1.00334000         
H                    -0.22711000           0.39418000          -1.58159000         
H                    -1.26928000          -1.07077000          -1.60221000         
H                    -0.22047000          -0.76077000          -0.19844000         
H                     2.56276000           1.98978000           0.55602000         
H                     0.71165000           1.69267000           0.39042000         
