12
Image 1
C                    -0.36928000           0.24831000          -0.80474000         
C                     1.07892000           1.03345000          -0.00838000         
C                     1.51169000          -0.24240000           0.58111000         
O                    -1.68609000           0.53653000          -0.41799000         
O                    -2.14014000          -0.39642000           0.62342000         
O                     2.14386000          -1.08971000          -0.02663000         
H                    -2.77923000           0.18700000           1.07240000         
H                    -0.31463000           0.60614000          -1.83579000         
H                    -0.20015000          -0.82911000          -0.77344000         
H                     1.05141000          -0.48267000           1.56386000         
H                     1.72808000           1.41059000          -0.80231000         
H                     0.76563000           1.80324000           0.70017000         
