12
Image 1
C                     1.33531000           0.46848000          -0.32330000         
C                    -0.66442000          -0.81194000          -0.35054000         
C                    -1.63539000           0.08173000           0.41184000         
O                     0.66659000          -0.70985000           0.12079000         
O                     2.64528000           0.44724000           0.13671000         
O                    -2.70118000           0.44889000          -0.03220000         
H                     2.63687000           0.41758000           1.10753000         
H                     1.38859000           0.48531000          -1.41908000         
H                     0.78688000           1.35806000           0.03432000         
H                    -1.31068000           0.35543000           1.44033000         
H                    -0.97016000          -1.85295000          -0.18290000         
H                    -0.74421000          -0.60854000          -1.42897000         
