12
Image 1
C                    -2.22417000           0.74174000           0.09456000         
C                     0.75757000          -1.01057000          -0.11619000         
C                     1.88599000           0.01978000          -0.15670000         
O                    -1.51205000          -0.41012000          -0.36834000         
O                    -0.39756000          -0.58511000           0.57575000         
O                     1.76283000           1.21654000          -0.04104000         
H                    -1.53449000           1.41350000           0.61127000         
H                    -2.61510000           1.23476000          -0.80192000         
H                    -3.04624000           0.45091000           0.75967000         
H                     2.88865000          -0.43700000          -0.32625000         
H                     0.50974000          -1.29514000          -1.14837000         
H                     1.13329000          -1.91406000           0.38858000         
