12
Image 1
C                    -1.04282000          -0.32234000          -2.30449000         
C                    -1.43183000          -1.47279000          -1.74893000         
C                     0.13290000          -0.08439000           1.22215000         
O                     1.10655000           0.67037000           0.62250000         
O                     0.58804000           2.01435000           0.40382000         
O                     0.34103000          -1.23898000           1.46886000         
H                     1.31160000           2.53339000           0.80216000         
H                    -1.74192000           0.32651000          -2.82808000         
H                    -0.01011000           0.01585000          -2.25835000         
H                    -0.78326000           0.48987000           1.41732000         
H                    -0.73456000          -2.12128000          -1.22387000         
H                    -2.46522000          -1.81016000          -1.79740000         
