12
Image 1
C                     0.10645000           1.34405000           0.29063000         
C                    -0.92690000           0.77725000          -0.35279000         
C                    -1.84340000          -0.11481000           0.36216000         
O                     1.61602000          -0.52828000          -0.06881000         
O                     3.06660000          -0.52793000          -0.09027000         
O                    -2.87632000          -0.56341000          -0.10773000         
H                     3.25561000          -1.27162000           0.50999000         
H                     0.79231000           2.03265000          -0.19270000         
H                     0.29151000           1.14073000           1.34222000         
H                    -1.54772000          -0.35755000           1.40688000         
H                     1.40619000          -0.71060000          -1.00453000         
H                    -1.14735000           0.97985000          -1.39926000         
