12
Image 81
C                     0.65522000           0.77300000           0.11617000         
C                    -0.74434000           0.62368000          -0.47249000         
C                    -1.73423000          -0.16978000           0.36225000         
O                     1.35075000          -0.44626000          -0.14849000         
O                     2.75961000          -0.18227000           0.12032000         
O                    -2.83574000          -0.48448000          -0.03412000         
H                     2.94821000          -0.88220000           0.77166000         
H                     1.18967000           1.59550000          -0.37124000         
H                     0.62713000           0.96601000           1.19952000         
H                    -1.41209000          -0.43320000           1.39473000         
H                    -0.69446000           0.18316000          -1.47571000         
H                    -1.17737000           1.62647000          -0.60124000         
