12
Image 81
C                     0.43450000           0.51297000          -0.56367000         
C                    -0.81825000           1.04593000           0.12993000         
C                    -1.93092000           0.03281000           0.32760000         
O                     1.32273000           0.12432000           0.48956000         
O                     2.43539000          -0.57241000          -0.14079000         
O                    -2.00485000          -1.03848000          -0.23353000         
H                     3.17611000          -0.00016000           0.13043000         
H                     0.19872000          -0.35787000          -1.18324000         
H                     0.91274000           1.28472000          -1.18072000         
H                    -2.73703000           0.35690000           1.02122000         
H                    -1.25437000           1.87029000          -0.45585000         
H                    -0.56137000           1.48692000           1.10299000         
