12
Image 1
C                    -0.11327000           0.89063000          -0.99794000         
C                    -1.01991000           1.09309000          -0.02537000         
C                    -1.99681000           0.05194000           0.33167000         
O                     1.59292000           0.09675000           0.50980000         
O                     2.71387000          -0.75342000           0.14846000         
O                    -2.03121000          -1.06862000          -0.15890000         
H                     3.44359000          -0.27207000           0.57766000         
H                    -0.09550000          -0.04514000          -1.54961000         
H                     0.60829000           1.64860000          -1.28145000         
H                    -2.74247000           0.33645000           1.10387000         
H                    -1.05843000           2.02800000           0.53029000         
H                     0.99755000          -0.55262000           0.92913000         
