12
Image 74
C                    -1.72815000          -0.74204000           0.36580000         
C                    -0.50979000          -0.43965000          -0.51648000         
C                     0.74682000          -1.13081000          -0.00559000         
O                    -0.29547000           0.94563000          -0.74999000         
O                    -0.03252000           1.59752000           0.52387000         
O                     1.77337000          -0.55344000           0.28778000         
H                     0.93475000           1.46011000           0.58663000         
H                    -2.62143000          -0.30098000          -0.08576000         
H                    -1.88247000          -1.82373000           0.45598000         
H                     0.67149000          -2.23553000           0.09326000         
H                    -1.59515000          -0.31864000           1.36466000         
H                    -0.69189000          -0.82500000          -1.53267000         
