12

C                     1.14583000           1.75259000          -2.13507000         
C                     0.89531000           0.37032000          -1.50481000         
C                     1.88468000           0.07133000          -0.41696000         
O                     0.25160000           2.00108000          -3.19026000         
O                     1.08119000           2.78342000          -1.18078000         
O                     3.07945000           0.01751000          -0.66191000         
H                     0.16548000           2.77834000          -0.79754000         
H                     0.97445000          -0.41352000          -2.28858000         
H                     2.17033000           1.75569000          -2.56520000         
H                     1.53759000          -0.10788000           0.59546000         
H                    -0.66639000           1.99465000          -2.81235000         
H                    -0.13030000           0.33658000          -1.07779000         
