12

C                     1.33665000           0.60816000          -2.67065000         
C                     0.90866000           1.32274000          -1.38285000         
C                     1.28763000           0.48408000          -0.18875000         
O                    -0.48731000           1.50170000          -1.39170000         
O                     1.55974000           2.56798000          -1.30591000         
O                     2.45617000           0.20383000           0.02965000         
H                     1.17199000           3.05702000          -0.53286000         
H                     2.43721000           0.45420000          -2.68625000         
H                     1.05903000           1.21789000          -3.55687000         
H                     0.52135000           0.12826000           0.49303000         
H                    -0.69621000           2.17429000          -2.09220000         
H                     0.83428000          -0.38006000          -2.75044000         
