12

C                     1.29411000           1.73807000          -2.12065000         
C                     0.72630000           0.43932000          -1.51108000         
C                     1.62360000          -0.18751000          -0.47627000         
O                     0.46549000           2.22564000          -3.14617000         
O                     1.50191000           2.72869000          -1.14488000         
O                     2.69676000           0.30731000          -0.16870000         
H                     0.61474000           2.96525000          -0.76757000         
H                     2.27732000           1.50027000          -2.58030000         
H                     0.57415000          -0.30036000          -2.32573000         
H                     1.30763000          -1.10777000           0.00403000         
H                    -0.43471000           2.38002000          -2.75718000         
H                    -0.25809000           0.65117000          -1.04130000         
