12

C                     1.58226000           1.53374000          -2.38097000         
C                     1.39257000           1.33172000          -1.05475000         
C                     2.14127000           0.27417000          -0.33891000         
O                     0.93129000           2.47811000          -3.10052000         
O                     0.52261000           2.06881000          -0.32268000         
O                     2.94524000          -0.44362000          -0.91410000         
H                    -0.02648000           2.78404000          -0.66645000         
H                     2.29177000           0.91269000          -2.91914000         
H                    -0.60643000          -0.60602000          -2.36233000         
H                     1.97160000           0.13040000           0.72316000         
H                     0.27592000           3.09079000          -2.74511000         
H                    -1.03241000          -0.21473000          -1.95400000         
