12

C                     1.22196000           1.26896000          -2.63161000         
C                     1.54182000           1.38412000          -1.16629000         
C                     2.35599000           0.49034000          -0.67611000         
O                     0.37074000           2.28693000          -3.08484000         
O                     1.08861000           2.37711000          -0.36153000         
O                     3.10947000          -0.32209000          -0.23007000         
H                     0.51024000           3.09545000          -0.65211000         
H                     2.19799000           1.36948000          -3.13770000         
H                     0.82267000           0.25621000          -2.90667000         
H                    -0.01243000          -0.66624000           0.14768000         
H                    -0.53991000           1.89689000          -3.15953000         
H                    -0.27794000          -0.09707000          -0.17700000         
