12

C                     1.22788000           0.95405000          -2.57611000         
C                     0.20558000           1.75785000          -1.76072000         
C                     2.03212000          -0.13335000          -0.51023000         
O                     2.08788000           0.15238000          -1.83508000         
O                     0.87358000           2.63474000          -0.89543000         
O                     2.93579000          -0.77118000           0.00366000         
H                     0.16960000           3.17349000          -0.44939000         
H                     1.84215000           1.67647000          -3.15514000         
H                     0.69104000           0.30912000          -3.30366000         
H                     1.19570000           0.17049000           0.10809000         
H                    -0.41667000           2.34483000          -2.47338000         
H                    -0.45544000           1.07120000          -1.18842000         
