12

C                     1.13124000           1.04895000          -2.88131000         
C                     0.94436000           0.31607000          -1.60074000         
C                     2.02393000          -0.01830000          -0.93973000         
O                     0.31147000           2.18486000          -2.94543000         
O                     1.06352000           2.20419000           0.77054000         
O                     3.01189000          -0.30770000          -0.33148000         
H                     0.67162000           2.51878000          -0.08463000         
H                     2.18901000           1.38015000          -2.99656000         
H                     0.89233000           0.32397000          -3.68415000         
H                     0.70857000           1.28831000           0.90761000         
H                    -0.59265000           1.87313000          -3.20849000         
H                     0.03389000           0.52769000          -1.04144000         
