12

C                     0.98990000           0.80904000          -2.62887000         
C                     0.87120000           0.37787000          -1.16223000         
C                     1.77799000           1.16767000          -0.25120000         
O                     0.60127000           2.14340000          -2.81127000         
O                     1.60575000           2.49417000          -0.06383000         
O                     2.67234000           0.59555000           0.35079000         
H                     0.88422000           2.98507000          -0.47865000         
H                     2.04008000           0.69144000          -2.97157000         
H                     0.36752000           0.14315000          -3.26951000         
H                     1.15028000          -0.69748000          -1.10599000         
H                    -0.39145000           2.15155000          -2.82630000         
H                    -0.17991000           0.47867000          -0.81717000         
