12

C                     1.78252000           1.38321000          -3.76120000         
C                     0.27970000           1.11426000          -0.46550000         
C                     1.23081000          -0.01170000          -0.21648000         
O                     1.24188000           2.45900000          -3.95424000         
O                     0.92637000           2.33155000          -0.22273000         
O                     2.26467000          -0.10063000          -0.86040000         
H                     0.26965000           3.04097000          -0.44694000         
H                     2.81233000           1.34647000          -3.42388000         
H                     1.23046000           0.46293000          -3.91769000         
H                     1.00456000          -0.75805000           0.53751000         
H                    -0.06288000           1.06555000          -1.52238000         
H                    -0.59087000           1.00656000           0.21812000         
