12

C                     1.41355000           0.80594000          -2.81029000         
C                     0.68167000           0.87089000          -0.30088000         
C                     1.75641000           0.77789000          -1.34776000         
O                     0.80496000           2.02462000          -3.14291000         
O                     0.89854000           1.98506000           0.52054000         
O                     2.92311000           0.67010000          -1.00242000         
H                     0.62463000           2.78202000          -0.00482000         
H                     2.33313000           0.69712000          -3.42436000         
H                     0.75275000          -0.05446000          -3.06426000         
H                     0.70681000          -0.04464000           0.32646000         
H                    -0.17357000           1.90246000          -3.02853000         
H                    -0.33279000           0.92309000          -0.75657000         
