12

C                     0.99042000           0.50187000          -2.88826000         
C                     1.08490000           1.41821000           0.02044000         
C                     2.13198000           0.63746000           0.05282000         
O                     0.35316000           1.74822000          -2.87028000         
O                     1.23535000           2.73578000          -0.21006000         
O                     3.08821000          -0.08119000           0.03768000         
H                     0.46137000           3.29547000          -0.36246000         
H                     2.08207000           0.66382000          -2.75937000         
H                     0.82410000          -0.01819000          -3.85043000         
H                     0.61697000          -0.13991000          -2.06164000         
H                    -0.56902000           1.59647000          -3.19975000         
H                     0.08968000           0.98209000           0.05551000         
