12

C                     0.89248000           1.07014000          -3.12938000         
C                     0.84227000           1.40010000          -0.80625000         
C                     1.70819000           0.22807000          -0.43716000         
O                     1.23136000           1.93435000          -2.05940000         
O                     0.99675000           2.38599000           0.17728000         
O                     2.91919000           0.35747000          -0.34540000         
H                     0.34979000           3.10689000          -0.03992000         
H                     1.82598000           0.74884000          -3.63631000         
H                     0.33731000           0.14912000          -2.83429000         
H                     1.25777000          -0.74265000          -0.25866000         
H                     0.25641000           1.62093000          -3.85217000         
H                    -0.22830000           1.08083000          -0.81414000         
