12

C                     1.64343000           1.65905000          -2.30498000         
C                     1.08073000           1.33166000          -0.94908000         
C                     1.71289000           0.08931000          -0.39355000         
O                     1.22893000           2.62737000          -2.92137000         
O                     1.31086000           2.39521000          -0.06351000         
O                     2.91527000           0.04267000          -0.18282000         
H                     0.60452000           3.07199000          -0.23490000         
H                     2.41398000           1.03882000          -2.75400000         
H                    -0.58445000           0.08692000          -3.55891000         
H                     1.09833000          -0.77666000          -0.16925000         
H                    -1.02200000           0.63505000          -3.46188000         
H                    -0.01329000           1.13871000          -1.04155000         
