12

C                     0.40444000           1.24853000          -1.99692000         
C                     0.70588000           1.16922000          -0.52595000         
C                     1.54176000          -0.03789000          -0.21602000         
O                    -0.28339000           2.15773000          -2.43245000         
O                     1.39624000           2.31907000          -0.11365000         
O                     2.65356000          -0.16826000          -0.70511000         
H                     0.71581000           3.02624000           0.03864000         
H                     1.99816000           1.15153000          -4.92552000         
H                     0.78660000           0.49999000          -2.68489000         
H                     1.16105000          -0.80211000           0.45390000         
H                     1.55927000           1.70557000          -4.96667000         
H                    -0.25019000           1.07048000           0.03885000         
