12

C                     0.03188000           1.14612000          -2.51968000         
C                     0.11530000           1.61460000          -1.26800000         
C                     2.82680000          -0.37605000          -0.74034000         
O                     0.08638000           1.95911000          -3.59920000         
O                     0.26174000           2.93312000          -1.02482000         
O                     3.68607000          -0.30121000           0.12144000         
H                     0.32559000           3.26123000          -0.11744000         
H                     2.94150000           0.17048000          -1.67000000         
H                    -0.08248000           0.07818000          -2.67642000         
H                     1.94426000          -0.98439000          -0.57531000         
H                     0.18575000           2.91948000          -3.53128000         
H                     0.06642000           0.91943000          -0.43474000         
