12

C                     0.74134000           1.79400000          -3.76770000         
C                     1.06738000           0.50844000          -0.45650000         
C                     1.91939000          -0.38298000           0.38663000         
O                     0.16436000           2.85877000          -3.60718000         
O                     1.45655000           1.83981000          -0.26677000         
O                     3.12871000          -0.41368000           0.22375000         
H                     0.78533000           2.39451000          -0.74281000         
H                     1.82520000           1.76378000          -3.77532000         
H                     1.19848000           0.21962000          -1.52071000         
H                     1.46374000          -1.01179000           1.14433000         
H                    -0.80178000           2.90288000          -3.59365000         
H                     0.00460000           0.37450000          -0.15508000         
