12

C                     2.06042000           2.07602000          -2.45646000         
C                     1.29397000           2.49955000          -1.45251000         
C                     0.36937000          -1.05937000          -0.92895000         
O                    -0.57867000          -0.60441000          -1.77347000         
O                     1.72159000           3.48918000          -0.64393000         
O                     1.54989000          -1.00495000          -1.23551000         
H                     1.16903000           3.80008000           0.08626000         
H                     3.03430000           2.52101000          -2.63435000         
H                     1.71627000           1.27887000          -3.10726000         
H                     0.08084000          -1.47623000           0.02927000         
H                    -0.34937000          -0.22569000          -2.63401000         
H                     0.32157000           2.04604000          -1.28488000         
