5

C                     0.01863000          -0.61486000           0.38629000         
O                    -0.75780000          -0.91890000          -0.67136000         
O                     1.16271000          -1.03342000           0.44115000         
H                    -1.66635000          -0.59198000          -0.72443000         
H                    -0.36929000           0.00166000           1.19115000         
5
Properties=species:S:1:pos:R:3 energy:=T -11.197941329245=T gnorm:=T 0.000619279651=T xtb:=T 6.2.3=T (830e466)=T pbc="F F F"
C        0.59234008      -1.41367418       0.73549563
O       -0.95077522      -0.07296247      -0.30170888
O        1.57604684      -1.21504715       0.20716849
H       -1.55712533      -0.78321918      -0.52786219
H       -1.27258637       0.32740298       0.50970694
