8

C                     0.35244000          -0.81362000           0.35247000         
O                    -0.98211000          -1.00442000           0.31389000         
O                     1.02026000          -0.90503000          -0.66523000         
H                    -1.43737000          -1.21726000          -0.51313000         
H                     0.83460000          -0.57376000           1.29365000         
O                    -0.34188000           2.51004000          -0.13251000         
H                    -0.24471000           1.99254000          -0.97119000         
H                     0.48306000           2.31201000           0.37826000         
8
Properties=species:S:1:pos:R:3 energy:=T -16.371818862425=T gnorm:=T 0.000945488169=T xtb:=T 6.2.3=T (830e466)=T pbc="F F F"
C        0.01968636       0.19532802       0.25013034
O       -1.20964800      -0.42361617       0.13133254
O        0.74772297       0.13940354      -0.93175025
H       -1.07998431      -1.34265426      -0.12470424
H        0.65939941      -0.31553901       0.99724854
O       -0.25678718       1.49518308       0.62749914
H        0.23471672       0.57406837      -1.62754931
H        0.56918404       1.97832644       0.73400324
