8

C                    -0.06635000          -0.68857000           0.64914000         
O                    -0.96879000          -1.03492000          -0.29117000         
O                     1.09675000          -1.04680000           0.55245000         
H                    -0.71885000          -1.57175000          -1.05662000         
H                    -0.37537000          -0.08415000           1.49472000         
O                     0.48139000           2.51745000          -0.26084000         
H                    -0.47059000           2.33858000          -0.05493000         
H                     0.70611000           1.87076000          -0.97634000         
8
Properties=species:S:1:pos:R:3 energy:=T -16.363415489767=T gnorm:=T 0.000444435416=T xtb:=T 6.2.3=T (830e466)=T pbc="F F F"
C        0.82539556      -0.54643897      -0.23875741
O       -0.51560326      -0.63063348      -0.37283088
O        1.55828470      -1.48115980      -0.29679408
H       -0.79029273      -1.54617479      -0.52087366
H       -1.31608062       2.53265170       0.94374427
O        1.20556973       0.70386798      -0.03653579
H       -1.72390476       1.96735408       0.59332850
H        0.44093138       1.30113328      -0.01487094
