8

C                    -0.08737000          -0.76110000           0.48818000         
O                    -1.09413000          -1.21819000          -0.28384000         
O                     1.06774000          -0.81942000           0.09727000         
H                    -0.92652000          -1.60024000          -1.15707000         
H                    -0.30586000          -0.33612000           1.46157000         
O                     0.31713000           2.72811000          -0.05705000         
H                    -0.41517000           2.14422000          -0.37856000         
H                     1.12857000           2.16343000          -0.11420000         
8
Properties=species:S:1:pos:R:3 energy:=T -16.280548297473=T gnorm:=T 0.000802642323=T xtb:=T 6.2.3=T (830e466)=T pbc="F F F"
C       -0.50896515      -0.00582799       0.30966200
O       -0.76584763      -1.27022178      -0.16601946
O        0.73259444       0.41398507      -0.22597857
H       -0.69917030      -1.26417982      -1.12957730
H       -0.45961053      -0.07191950       1.40464495
O        0.85195683       1.81994539      -0.06970932
H       -1.27753468       0.73195323       0.01764213
H        1.81096703       1.94695540      -0.08436444
