7

C                     12.15122000         -0.93853000           1.94378000         
O                     11.96513000         -2.04364000           1.46363000         
H                     11.43201000         -0.52288000           2.64070000         
H                     13.03565000         -0.37194000           1.67374000         
C                     12.11989000          2.16196000           3.64352000         
N                     13.10674000          2.24915000           3.04496000         
H                     11.21726000          2.07957000           4.18957000         
7
Properties=species:S:1:pos:R:3 energy:=T -12.735232707759=T gnorm:=T 0.000468604476=T xtb:=T 6.2.3=T (830e466)=T pbc="F F F"
C       12.74147322      -0.28568205       1.91206494
O       11.96330331      -1.19350003       1.92677968
H       10.83596064       0.35088951       3.50196523
H       13.66403052      -0.28424808       1.30916382
C       11.63229693       1.08994815       3.38100198
N       12.63651193       0.92173926       2.63445737
H       11.55432345       2.01454324       3.93446698
