8

C                     10.52163000         -1.55202000           1.78407000         
N                     9.79639000          -0.79491000           2.52118000         
H                     10.05568000         -0.61509000           3.50201000         
H                     11.41981000         -2.01240000           2.18454000         
H                     10.24082000         -1.73110000           0.75229000         
C                     12.63212000          1.06586000           2.46803000         
N                     12.55875000          1.54333000           3.51886000         
H                     12.69610000          0.62633000           1.50682000         
8
Properties=species:S:1:pos:R:3 energy:=T -12.122371288398=T gnorm:=T 0.000780629497=T xtb:=T 6.2.3=T (830e466)=T pbc="F F F"
C       11.18276290      -1.09317822       1.62168090
N       10.78166394      -0.14244718       2.63805462
H       10.06347666      -0.45355184       3.27814516
H       11.64117814      -1.99348348       2.04785514
H       10.30454666      -1.38223327       1.04335251
C       11.65402352       0.71121851       3.13080029
N       12.39099041       1.49987130       3.52021597
H       11.90265778      -0.61619582       0.95769540
