9

N                    -2.09402000          -0.74318000           0.39943000         
C                    -1.93259000           0.58723000           0.23834000         
O                    -1.65551000           1.29451000           1.19379000         
H                    -1.98713000          -1.17844000           1.32769000         
H                    -2.32588000          -1.33558000          -0.41066000         
H                    -2.04596000           1.03318000          -0.74458000         
C                     1.29240000           0.24889000          -0.78673000         
N                     1.36818000          -0.86680000          -1.08441000         
H                     1.22001000           1.26890000          -0.51367000         
9
Properties=species:S:1:pos:R:3 energy:=T -16.157337582200=T gnorm:=T 0.000439487561=T xtb:=T 6.2.3=T (830e466)=T pbc="F F F"
N       -2.02072393      -0.57645045       0.33429751
C       -1.04877767       0.36050818      -0.18211783
O       -0.69189635       1.21236848       0.87435736
H       -1.69960292      -0.94265174       1.22383859
H       -2.17286282      -1.34227721      -0.31122319
H       -1.52023061       0.92092124      -1.01375642
C        0.13194112      -0.33159790      -0.72648424
N        1.01779146      -0.93405287      -1.12707657
H       -0.15613830       1.94194227       0.54736480
