12

C                     0.13362000           0.14805000           0.57366000         
N                     1.41934000          -0.18226000          -0.03377000         
O                    -0.63948000          -1.01373000           0.72933000         
O                    -0.54503000           1.04882000          -0.25728000         
H                    -0.25972000          -1.50640000           1.50275000         
H                    -1.34240000           1.35327000           0.24976000         
H                     0.31577000           0.63595000           1.56145000         
H                     1.93534000          -0.84388000           0.59054000         
H                     1.25694000          -0.65367000          -0.95324000         
C                    -0.79849000          -2.61353000          -2.09788000         
N                    -1.34356000          -1.87261000          -2.79962000         
H                    -0.29923000          -3.28921000          -1.45389000         
12
Properties=species:S:1:pos:R:3 energy:=T -21.241372973297=T gnorm:=T 0.000619452258=T xtb:=T 6.2.3=T (830e466)=T pbc="F F F"
C       -0.06122410       0.25788984       0.29325512
N        1.22711945      -0.20473092       0.01179150
O       -1.14339654      -0.72934891      -0.00001267
O       -0.28724045       1.39333115      -0.43128067
H        0.60075229      -3.72610727       0.53117207
H       -1.11133666       1.81894890      -0.16683578
H       -0.19938286       0.38555317       1.37805415
H        1.43796627      -1.09758613       0.43356309
H        1.41760557      -0.21158374      -0.98283766
C       -1.15430429      -1.28680988      -1.14121017
N       -1.16929231      -1.81935795      -2.15432003
H        0.27583362      -3.56939826      -0.15952895
