12

C                     0.17894000           0.05747000           0.78818000         
N                     1.49981000          -0.42251000           0.39074000         
O                    -0.62156000          -1.01144000           1.22552000         
O                    -0.42810000           0.71794000          -0.29092000         
H                    -0.80293000          -1.58296000           0.43460000         
H                    -1.24012000           1.15924000           0.07131000         
H                     0.31293000           0.77559000           1.62856000         
H                     1.94225000          -0.91352000           1.20131000         
H                     1.40389000          -1.10406000          -0.39674000         
C                    -0.78637000          -2.12733000          -2.48308000         
N                    -1.40619000          -3.10155000          -2.40761000         
H                    -0.21953000          -1.23617000          -2.55028000         
12
Properties=species:S:1:pos:R:3 energy:=T -21.288167335720=T gnorm:=T 0.000599147393=T xtb:=T 6.2.3=T (830e466)=T pbc="F F F"
C        0.20303925       0.00299449       0.48180614
N        1.58928712      -0.26749795       0.36992533
O       -0.63991903      -1.14713902       0.25833482
O       -0.10003897       1.01315246      -0.40622608
H       -1.76666606      -3.16069767      -0.58369512
H       -0.98946832       1.34641448      -0.24454323
H       -0.02783987       0.26718340       1.52656754
H        1.85594439      -1.07865956       0.91076233
H        1.86345186      -0.38378182      -0.59792868
C       -0.69088798      -1.64272654      -1.00040937
N       -1.29503476      -2.67707590      -1.34422932
H       -0.16884762      -1.06146636      -1.75877436
