9

N                    -2.09655000          -0.78801000           0.22502000         
C                    -1.91662000           0.52727000           0.46937000         
O                    -1.83612000           0.93557000           1.61681000         
H                    -2.16225000          -1.12721000          -0.74533000         
H                    -2.16933000          -1.46300000           1.00067000         
H                    -1.84089000           1.22772000          -0.35616000         
C                     1.27203000           0.35741000          -0.87854000         
N                     1.82252000          -0.52612000          -0.37313000         
H                     0.76682000           1.16507000          -1.33963000         
9
Properties=species:S:1:pos:R:3 energy:=T -16.136225501021=T gnorm:=T 0.000558059665=T xtb:=T 6.2.3=T (830e466)=T pbc="F F F"
N       -1.84120344      -0.93773937       0.25900520
C       -0.90380860      -0.17463537       0.86365424
O       -1.09016330       0.51162565       1.83799732
H       -1.64131732      -1.48829797      -0.55792640
H       -2.77699375      -0.93807915       0.63263300
H       -1.20245547       2.12648826      -1.78665189
C        0.40079189      -0.26829762       0.20670811
N        1.43244951      -0.31961611      -0.28359543
H       -0.53768953       1.79725168      -1.55274416
