9

N                    -2.05341000          -0.70273000          -0.03252000         
C                    -2.38863000           0.60450000          -0.00066000         
O                    -1.52169000           1.46365000          -0.00258000         
H                    -1.06517000          -0.99360000          -0.05883000         
H                    -2.78930000          -1.42330000          -0.03073000         
H                    -3.43334000           0.89678000           0.02686000         
C                     1.68863000           0.18642000          -0.09338000         
N                     2.00206000          -0.92727000          -0.12084000         
H                     1.40046000           1.20435000          -0.06824000         
9
Properties=species:S:1:pos:R:3 energy:=T -16.204206792463=T gnorm:=T 0.000606354649=T xtb:=T 6.2.3=T (830e466)=T pbc="F F F"
N       -1.30972039      -0.14410882      -0.03738175
C       -2.08923354       0.97888501       0.00005581
O       -1.67928977       2.10417908       0.01305024
H        0.42101104      -2.00477468      -0.10857473
H       -1.75666884      -1.05310970      -0.04527342
H       -3.16539152       0.72482946       0.01799262
C        0.07927619      -0.10928019      -0.06558499
N        0.85897914      -1.08468297      -0.10027506
H        0.48064771       0.89686282      -0.05492873
