6

O                    -2.58745000           0.74246000          -0.50570000         
H                    -3.13898000          -0.06893000          -0.63646000         
H                    -2.19599000           0.63783000           0.39774000         
C                    -4.19387000           3.18582000          -0.06297000         
N                    -3.48288000           3.67008000           0.71256000         
H                    -4.83628000           2.73459000          -0.77213000         
6
Properties=species:S:1:pos:R:3 energy:=T -10.629406056413=T gnorm:=T 0.000384358324=T xtb:=T 6.2.3=T (830e466)=T pbc="F F F"
O       -2.95416044       1.34017093      -1.13216350
H       -3.29164347       1.54467597       1.38615053
H       -2.47706681       0.70078877      -0.58114112
C       -3.68361687       2.18245141      -0.38605247
N       -3.81436812       2.23919423       0.85322106
H       -4.21459430       2.89456870      -1.00697450
