9

N                    -1.61619000           0.25870000           0.00689000         
C                    -2.68715000           1.02650000           0.29837000         
O                    -2.54788000           2.06669000           0.92168000         
H                    -0.67076000           0.53987000           0.30579000         
H                    -1.73860000          -0.61830000          -0.51936000         
H                    -3.67809000           0.72071000          -0.02132000         
C                     1.61068000          -1.20570000          -0.44200000         
N                     1.00326000          -2.01909000          -0.99759000         
H                     2.16424000          -0.46069000           0.06655000         
9
Properties=species:S:1:pos:R:3 energy:=T -16.175884286113=T gnorm:=T 0.000546496456=T xtb:=T 6.2.3=T (830e466)=T pbc="F F F"
N       -1.57076316      -0.47546352      -0.42255805
C       -2.16088211       0.61775645       0.13089143
O       -1.62053239       1.51148738       0.72530221
H        0.54489161       0.77989306       0.58674638
H       -2.15516742      -1.15333641      -0.89472559
H       -3.25557256       0.58633101      -0.03834293
C        0.66271688      -0.15635798       0.05391611
N       -0.26168326      -0.84013834      -0.46653839
H        1.65650241      -0.56148165      -0.05568118
