6

O                    -2.58745000           0.74246000          -0.50570000         
H                    -3.13898000          -0.06893000          -0.63646000         
H                    -2.19599000           0.63783000           0.39774000         
C                    -4.19387000           3.18582000          -0.06297000         
N                    -3.48288000           3.67008000           0.71256000         
H                    -4.83628000           2.73459000          -0.77213000         
6
Properties=species:S:1:pos:R:3 energy:=T -10.579029564157=T gnorm:=T 0.000548678876=T xtb:=T 6.2.3=T (830e466)=T pbc="F F F"
O       -2.11815965       1.80964757       0.48140092
H       -4.55892817       0.44418702      -1.26612477
H       -2.46171752       1.01222798       0.05836766
C       -2.94816703       2.77827303       0.45702324
N       -3.65738990       3.67335685       0.45892619
H       -4.69108773       1.18415756      -1.05655324
