7

C                     12.56616000         -0.88592000           2.02187000         
O                     13.06791000         -0.01305000           1.33371000         
H                     12.69621000         -0.86939000           3.09850000         
H                     11.98633000         -1.67577000           1.55799000         
C                     11.54497000          1.99964000           3.52434000         
N                     12.41558000          2.73377000           3.72608000         
H                     10.75084000          1.32453000           3.33761000         
7
Properties=species:S:1:pos:R:3 energy:=T -12.755471118134=T gnorm:=T 0.000304893500=T xtb:=T 6.2.3=T (830e466)=T pbc="F F F"
C       11.95132613      -0.42425678       2.47056626
O       12.50721448       0.80836970       2.02390762
H       12.50448318      -0.81171951       3.32949783
H       12.04084822      -1.11090438       1.63092775
C       12.53710125       1.77686459       2.84986813
N       12.58742853       2.67583511       3.55532946
H       10.89959820      -0.30037871       2.74000294
