8

C                     11.29386000         -1.96083000           1.68156000         
N                     10.33433000         -1.15453000           1.41396000         
H                     9.83192000          -0.66882000           2.17104000         
H                     11.58959000         -2.14170000           2.71055000         
H                     11.81620000         -2.46501000           0.87620000         
C                     11.65991000          1.65868000           3.13872000         
N                     12.54502000          1.01142000           2.76879000         
H                     10.85047000          2.25058000           3.47688000         
8
Properties=species:S:1:pos:R:3 energy:=T -12.088850037377=T gnorm:=T 0.000787342868=T xtb:=T 6.2.3=T (830e466)=T pbc="F F F"
C       11.65472489      -1.92553316       1.71910845
N       11.53542856      -0.68578500       1.52483952
H        9.72970931       0.81023469       2.90834640
H       11.74030754      -2.38269687       2.70192678
H       11.67864325      -2.56523348       0.85316100
C       10.79241691       1.03490841       2.87478641
N       11.65039580       0.30922145       2.30301789
H       11.13967374       1.93467395       3.35251355
