9

N                    -2.09540000          -0.46298000           0.20176000         
C                    -1.82591000           0.72341000           0.78671000         
O                    -0.77894000           0.88839000           1.39219000         
H                    -1.42378000          -1.24300000           0.25751000         
H                    -2.98043000          -0.59664000          -0.30787000         
H                    -2.54119000           1.53679000           0.72039000         
C                     1.14073000          -0.16138000          -1.16173000         
N                     1.90703000          -0.78586000          -0.56061000         
H                     0.43749000           0.40977000          -1.70924000         
9
Properties=species:S:1:pos:R:3 energy:=T -16.178624820392=T gnorm:=T 0.000813548516=T xtb:=T 6.2.3=T (830e466)=T pbc="F F F"
N       -1.90029209      -0.62839205       0.18196678
C       -1.31552243       0.65445495      -0.05698669
O       -0.02989687       0.73081132       0.56882106
H       -1.49463031      -1.35357395      -0.39835362
H       -2.90360592      -0.62218008       0.07850633
H       -1.90522661       1.42635831       0.44445010
C        0.87152791      -0.06266009       0.14568444
N        1.70432972      -0.75677140      -0.22017504
H       -1.18708340       0.92045299      -1.12480337
