12

C                     1.13875000           1.49492000          -2.23120000         
C                     0.64307000           0.60142000          -1.08482000         
C                     1.39706000          -0.69327000          -1.03812000         
O                     0.36963000           2.67062000          -2.33893000         
O                     0.55765000           3.35908000          -1.22635000         
O                     2.60337000          -0.70446000          -0.85958000         
H                     1.22829000           4.05127000          -1.45589000         
H                     2.21771000           1.74627000          -2.11594000         
H                     1.03473000           0.93666000          -3.18692000         
H                     0.86247000          -1.63093000          -1.15326000         
H                    -0.43621000           0.38564000          -1.23291000         
H                     0.77238000           1.12247000          -0.11188000         
12
Properties=species:S:1:pos:R:3 energy:=T -21.540879769976=T gnorm:=T 0.000793470660=T xtb:=T 6.2.3=T (830e466)=T pbc="F F F"
C        1.38965403       2.07944089      -3.27353430
C        0.72095060       0.78187343       0.19571293
C        1.24806044      -0.18235453      -0.81188532
O        0.44678740       2.94090791      -3.74713585
O        0.14785871       2.03812239      -2.71418633
O        2.20006998      -0.00035803      -1.52029433
H        1.42692504       1.58945582       0.37020136
H        2.18871192       2.50069573      -2.66666623
H        1.67255003       1.24440779      -3.91163935
H        0.66344397      -1.12059287      -0.88135483
H       -0.20498028       1.19882552      -0.20122996
H        0.48886817       0.26926596       1.12621223
