12

C                     1.72995000           1.52370000          -1.79177000         
C                     1.09380000           0.61192000          -0.73762000         
C                     0.41471000          -0.57581000          -1.35462000         
O                     0.75088000           2.09249000          -2.63024000         
O                     0.32569000           3.18986000          -2.02743000         
O                    -0.13028000          -1.40263000          -0.64002000         
H                     0.76127000           3.93639000          -2.51521000         
H                     2.34243000           2.31150000          -1.29408000         
H                     2.43850000           0.93897000          -2.41677000         
H                     0.41168000          -0.72314000          -2.43010000         
H                     0.35975000           1.19438000          -0.13981000         
H                     1.89052000           0.24187000          -0.05814000         
12
Properties=species:S:1:pos:R:3 energy:=T -21.562635235864=T gnorm:=T 0.000630251898=T xtb:=T 6.2.3=T (830e466)=T pbc="F F F"
C        1.86352324       1.49163628      -2.11596244
C        1.07298174       0.76663540      -1.07107617
C        0.65791280      -0.48464007      -1.20202981
O        1.14078070       2.52688638      -2.74634878
O        0.89448535       3.57694461      -1.80496922
O       -0.06541843      -1.17834293      -0.29558005
H        0.49727496       4.25383709      -2.36577585
H        2.78253545       1.90726312      -1.67957221
H        2.11581124       0.83247639      -2.94953296
H        0.88923423      -1.09086963      -2.06624209
H       -0.27381555      -0.61188857       0.45880979
H        0.81359427       1.34956192      -0.19753020
