12

C                     1.22624000           1.39926000          -2.20880000         
C                     0.51166000           0.63111000          -1.09745000         
C                     1.24127000          -0.63367000          -0.75454000         
O                     0.49834000           2.57033000          -2.50785000         
O                     1.28805000           3.60056000          -2.25913000         
O                     2.38401000          -0.59354000          -0.32708000         
H                     1.00667000           3.93064000          -1.36702000         
H                     2.27680000           1.60921000          -1.89097000         
H                     1.28188000           0.77488000          -3.12642000         
H                     0.74913000          -1.59318000          -0.87468000         
H                    -0.51709000           0.37765000          -1.43368000         
H                     0.44193000           1.26624000          -0.18828000         
12
Properties=species:S:1:pos:R:3 energy:=T -21.617569836143=T gnorm:=T 0.000994738658=T xtb:=T 6.2.3=T (830e466)=T pbc="F F F"
C        0.26568182       0.81760788      -2.85664572
C        0.14456666       0.64076852      -1.35322538
C        1.35263258      -0.11883362      -0.89141742
O       -0.44519927       0.28604194      -3.65440631
O        1.96517906       3.16291335      -1.00112354
O        2.44364947       0.36127948      -0.74099578
H        2.60131060       3.83339588      -0.74844706
H        2.40177207       2.30647549      -0.88184708
H        1.08960854       1.48936649      -3.14382326
H        1.17985244      -1.19433852      -0.72427370
H       -0.77430658       0.10885083      -1.11429813
H        0.16414260       1.64596228      -0.92539662
