12

C                     1.52953000           1.42640000          -2.14761000         
C                     0.55276000           0.66496000          -1.24113000         
C                     1.07947000          -0.67574000          -0.80228000         
O                     0.96657000           2.63869000          -2.58641000         
O                     1.14882000           3.51615000          -1.61671000         
O                     2.17805000          -1.08176000          -1.15261000         
H                     0.27208000           3.96828000          -1.52138000         
H                     2.50612000           1.59505000          -1.63541000         
H                     1.74616000           0.81186000          -3.04749000         
H                     0.46625000          -1.29893000          -0.16027000         
H                    -0.39960000           0.50269000          -1.78958000         
H                     0.34270000           1.27204000          -0.33492000         
12
Properties=species:S:1:pos:R:3 energy:=T -21.563352529248=T gnorm:=T 0.000461687949=T xtb:=T 6.2.3=T (830e466)=T pbc="F F F"
C        1.65757182       1.48338885      -2.14739450
C        1.28506585       0.61323839      -0.96203346
C        0.39700796      -0.53977378      -1.12259885
O        0.72314865       2.50391922      -2.37992198
O        0.76025068       3.43770627      -1.29943481
O        1.77666866      -0.69122141      -0.94627503
H        0.39448680       4.23535229      -1.70362011
H        2.65896701       1.90719435      -1.99564579
H        1.64263865       0.90124647      -3.07196431
H       -0.22188609      -0.85825252      -0.29192012
H        0.01879529      -0.78544086      -2.10816135
H        1.29619472       1.13233275      -0.00682969
