12

C                     1.42495000           1.33883000          -2.30336000         
C                     0.55441000           0.54533000          -1.24288000         
C                     1.20343000          -0.68095000          -0.80225000         
O                     0.53695000           2.36778000          -2.38783000         
O                     0.85682000           3.18738000          -1.42003000         
O                     2.20537000          -1.07997000          -1.36555000         
H                     0.59201000           4.02396000          -1.83527000         
H                     2.41364000           1.51054000          -1.71664000         
H                     2.02394000           1.93155000          -3.07694000         
H                     0.76409000          -1.21762000           0.02500000         
H                    -0.48519000           0.26389000          -1.57472000         
H                     0.29848000           1.14888000          -0.33543000         
12
Properties=species:S:1:pos:R:3 energy:=T -21.638946031339=T gnorm:=T 0.000463903447=T xtb:=T 6.2.3=T (830e466)=T pbc="F F F"
C        1.67507104       2.09440244      -2.21249622
C        0.21500390       0.52359423      -1.22439878
C        1.13625808      -0.61553698      -0.85725511
O        0.58691533       1.22714066      -2.38718543
O        1.35683832       3.19062735      -1.41241496
O        2.15093738      -0.91313012      -1.41462315
H        0.64835027       3.69380060      -1.83285326
H        2.51980765       1.59776806      -1.72271977
H        1.96102045       2.39651278      -3.22856977
H        0.76969921      -1.17362494       0.02952281
H       -0.78309762       0.11685324      -1.41450182
H        0.15209599       1.20119267      -0.35840452
