12

C                     1.17371000           1.37754000          -2.22073000         
C                     0.53539000           0.65883000          -1.03021000         
C                     1.25158000          -0.62826000          -0.75038000         
O                     0.48554000           2.57118000          -2.50737000         
O                     0.91235000           3.47223000          -1.64007000         
O                     1.78434000          -0.81759000           0.33062000         
H                     1.52575000           4.05516000          -2.15724000         
H                     2.25686000           1.57245000          -2.03921000         
H                     1.11648000           0.72507000          -3.11861000         
H                     1.29781000          -1.39961000          -1.51275000         
H                    -0.52952000           0.43742000          -1.25625000         
H                     0.57880000           1.31518000          -0.13352000         
12
Properties=species:S:1:pos:R:3 energy:=T -21.512109701256=T gnorm:=T 0.000618432842=T xtb:=T 6.2.3=T (830e466)=T pbc="F F F"
C        0.27698751       1.45181781      -2.48701671
C       -0.29848441       0.93653021      -1.41591624
C        2.28098747      -0.29292884      -0.82821930
O        1.06101774       2.55263484      -2.56329271
O        1.22248931       3.20533375      -1.30858644
O        2.46152979       0.02968642       0.30629973
H        1.88614879       3.87727263      -1.51465690
H        2.76757077       0.21309083      -1.67830426
H        0.20270011       1.04628339      -3.48717255
H        1.63035637      -1.13538961      -1.11454574
H       -0.90829598       0.05750657      -1.49299090
H       -0.19391747       1.39776201      -0.45131796
