12

C                     0.72425000           1.54510000          -2.14069000         
C                     0.25240000           0.32938000          -1.34110000         
C                     1.39987000          -0.37076000          -0.66923000         
O                     1.28577000           2.49471000          -1.26441000         
O                     2.29454000           3.05790000          -1.90243000         
O                     2.08463000           0.20613000           0.15983000         
H                     2.15606000           4.03114000          -1.78183000         
H                     1.44832000           1.18579000          -2.91188000         
H                    -0.14597000           2.00167000          -2.66039000         
H                     1.62020000          -1.40413000          -0.91640000         
H                    -0.24373000          -0.38542000          -2.03214000         
H                    -0.48734000           0.64810000          -0.57524000         
12
Properties=species:S:1:pos:R:3 energy:=T -21.513682403736=T gnorm:=T 0.000620174893=T xtb:=T 6.2.3=T (830e466)=T pbc="F F F"
C        0.83676504       1.52273022      -2.21075419
C        0.70739909       0.87612583      -0.85093745
C        1.74027144       0.53205215      -0.14800457
O        0.92188571       2.92545392      -2.14864539
O        2.20541955       3.29607199      -1.64430543
O        2.66262002       0.16644859       0.45391608
H        2.06913687       4.21814180      -1.39009949
H        1.70728520       1.12499818      -2.74449685
H       -0.06894567       1.35569704      -2.79768253
H       -0.21667638      -2.09708456      -2.24016426
H        0.08992261      -1.45228095      -1.92399699
H       -0.26608348       0.87125578      -0.39073895
