8

C          0.37779        1.56991       -2.45070
C         -0.24446        1.08459       -1.36990
O          0.86366        2.83486       -2.50508
O          0.76255        3.66179       -1.51523
H          1.41584        4.37737       -1.72074
H          0.50166        0.92879       -3.31718
H         -0.61346        0.06368       -1.37299
H         -0.38732        1.68517       -0.47806
8

C          0.32742        2.34816       -1.62533
C         -0.24405        1.66923       -0.80785
O          0.96677        3.10026       -2.53992
O          0.88618        4.33349       -2.08217
H          1.80727        4.55874       -1.79034
H         -0.00706       -0.25119       -3.15841
H         -0.39264       -0.58666       -2.66841
H         -0.74327        1.06716       -0.09564
