10

C          0.49083        1.64865       -1.92962
C          0.92708        1.20952       -0.73712
C          1.15854       -0.22218       -0.47859
O          0.27038        2.96189       -2.18251
O          0.43732        3.88480       -1.28604
O          1.64732       -0.57860        0.58050
H          1.26063        4.36034       -1.56374
H          0.30921        0.94080       -2.73324
H          0.89951       -0.97203       -1.21690
H          1.12371        1.91331        0.06555
10

C          0.75537        2.31262       -1.38709
C          1.07967        1.44749       -0.40586
C          1.01487       -0.02478       -0.51873
O          0.33133        1.91804       -2.61239
O          0.86092        3.63452       -1.13583
O          1.35210       -0.71524        0.42908
H          0.63952        4.29118       -1.81068
H          0.22990        0.99988       -2.89205
H          0.67252       -0.51949       -1.41698
H          1.41497        1.85518        0.54427
