12

C                     1.65647000           1.51543000          -2.30119000         
C                     1.08181000           0.78340000          -1.12637000         
C                     0.91855000          -0.54140000          -1.06078000         
O                     0.75147000           2.54864000          -2.63366000         
O                     0.77628000           3.41426000          -1.64292000         
O                     0.11176000          -1.03108000          -0.09866000         
H                     1.30746000           4.18268000          -1.97451000         
H                     2.66020000           1.95077000          -2.11131000         
H                     1.72673000           0.83017000          -3.17269000         
H                     1.33750000          -1.23272000          -1.78175000         
H                    -0.62585000          -0.46874000           0.18962000         
H                     0.68662000           1.38818000          -0.32159000         
12
Properties=species:S:1:pos:R:3 =T pbc="F F F"
C       1.81512776       1.64605893      -2.63145753 
C       1.55037298       0.32932554      -2.08174650 
C       1.40168795      -0.82020559      -1.77111077 
O       0.67578434       2.47364134      -2.55672642 
O       0.87169889       3.31848571      -1.55936765 
O      -0.00381427       0.06845759       0.61017182 
H       1.26541407       4.12941335      -1.97713875 
H       2.73004220       2.08429700      -2.16695979 
H       2.01596250       1.43667513      -3.69849787 
H       1.22049762      -1.82557247      -1.51615911 
H      -0.81073630      -0.38307483       0.25503509 
H      -0.34303773       0.88208830       1.05814748 
