18

C                     0.02585000          -0.58827000           0.83336000         
C                     0.70684000           0.41289000          -0.12186000         
C                    -1.47387000          -0.29281000           0.92812000         
C                     2.18243000           0.08666000          -0.35604000         
C                     0.63092000          -0.50842000           2.21643000         
C                     1.21563000          -1.55982000           2.79936000         
H                     0.14021000          -1.61297000           0.41256000         
H                     0.61753000           1.44557000           0.28250000         
H                     0.19578000           0.38126000          -1.10896000         
H                     0.58704000           0.43308000           2.75701000         
H                    -1.96628000          -1.03311000           1.59488000         
H                    -1.94320000          -0.36744000          -0.07611000         
H                    -1.65227000           0.72755000           1.33114000         
H                     2.75516000           0.12811000           0.59381000         
H                     2.28381000          -0.92661000          -0.80009000         
H                     2.61754000           0.82643000          -1.06084000         
H                     1.27952000          -2.51913000           2.29622000         
H                     1.63547000          -1.46127000           3.79509000         
18
Properties=species:S:1:pos:R:3 energy:=T -18.886488047135=T gnorm:=T 0.000597990363=T xtb:=T 6.2.3=T (830e466)=T pbc="F F F"
C       -0.85748930      -0.02130791       0.12470243
C       -0.59669013       1.20817883       0.52411014
C       -2.13904521      -0.74059905       0.37934596
C        3.02333028      -0.80950498       0.47897529
C        2.49929230      -0.36737765       1.80372821
C        1.58742830      -1.01479899       2.50291050
H       -0.11366781      -0.58292672      -0.42516870
H        0.34655732       1.68636523       0.32493979
H       -1.31758070       1.78871443       1.07585594
H        2.92024539       0.55565071       2.18191598
H       -1.95330255      -1.63841225       0.96844285
H       -2.59154538      -1.05287275      -0.56163866
H       -2.84137600      -0.10789872       0.91601031
H        4.10398513      -0.94158951       0.52511386
H        2.56715787      -1.74736387       0.17314599
H        2.81713621      -0.05298769      -0.27770492
H        1.15039714      -1.93368284       2.14812646
H        1.23327714      -0.65588628       3.45376858
