23

C                     0.72600000          -2.09077000           1.34676000         
C                     0.70627000          -0.52794000           1.26664000         
C                     1.93009000          -2.57869000           2.19598000         
C                    -0.60784000          -2.68288000           1.85141000         
C                     0.36819000           0.16010000           2.60287000         
C                    -0.24943000          -0.02353000           0.17261000         
C                     2.12057000          -4.09700000           2.18382000         
H                     0.89631000          -2.46522000           0.31213000         
H                     1.72324000          -0.19570000           0.95931000         
H                     1.83539000          -2.24763000           3.25057000         
H                     2.85706000          -2.13259000           1.77233000         
H                    -0.59973000          -3.78892000           1.78977000         
H                    -1.45894000          -2.34753000           1.22732000         
H                    -0.79682000          -2.39712000           2.90705000         
H                     1.08051000          -0.12930000           3.40032000         
H                    -0.66317000          -0.08773000           2.93073000         
H                     0.43010000           1.26304000           2.48753000         
H                    -1.30617000          -0.27047000           0.39852000         
H                     0.02492000          -0.46736000          -0.80828000         
H                    -0.16959000           1.08072000           0.07829000         
H                     2.22466000          -4.46728000           1.14185000         
H                     1.27392000          -4.61393000           2.67885000         
H                     3.04297000          -4.35607000           2.74523000         
23
Properties=species:S:1:pos:R:3 energy:=T -23.119468471851=T gnorm:=T 0.000236781243=T xtb:=T 6.2.3=T (830e466)=T pbc="F F F"
C       -0.72338864      -1.79625436       0.84415511
C       -0.32363073      -0.56681223       1.14515512
C        2.86896657      -2.43438333       2.16160017
C       -1.07457133      -2.90153621       1.78661023
C       -0.14281246      -0.04011662       2.53985877
C       -0.02583174       0.43870881       0.07015057
C        2.67203458      -3.90895963       2.48001605
H       -0.82804377      -2.06181642      -0.20117046
H        2.00991653      -2.04283390       1.62221467
H        2.99192493      -1.85927604       3.07684672
H        3.75546718      -2.29131642       1.54760374
H       -0.52281864      -3.80368190       1.52336513
H       -2.13766564      -3.13120968       1.70604575
H       -0.85875626      -2.64824007       2.81988545
H        0.05743851      -0.83245200       3.25487727
H       -1.04307199       0.48659154       2.85848782
H        0.68468553       0.66631302       2.56762534
H       -0.59220236       1.35315668       0.24427352
H       -0.27786216       0.05323365      -0.91452654
H        1.03325291       0.69853193       0.07986703
H        2.54239096      -4.48255099       1.56489980
H        1.79027911      -4.05172892       3.10066230
H        3.53280888      -4.30716689       3.01310643
