21

C                     0.89245000          -0.35123000           1.26512000         
C                     0.06780000          -1.61057000           1.66971000         
C                     1.71633000           0.20374000           2.43463000         
C                    -0.88242000          -2.02527000           0.53505000         
C                     0.93122000          -2.81574000           2.08701000         
C                     1.81086000          -0.61766000           0.09026000         
C                     1.67474000           0.02049000          -1.07575000         
H                     0.15945000           0.44330000           0.99528000         
H                    -0.56752000          -1.33335000           2.54052000         
H                     2.61009000          -1.34549000           0.19326000         
H                     1.05312000           0.43233000           3.29599000         
H                     2.21937000           1.14595000           2.12774000         
H                     2.50032000          -0.51016000           2.76098000         
H                    -0.31556000          -2.33225000          -0.36953000         
H                    -1.55248000          -1.18042000           0.26775000         
H                    -1.51831000          -2.87713000           0.85814000         
H                     1.56835000          -3.16561000           1.24831000         
H                     0.27760000          -3.65929000           2.39586000         
H                     1.57578000          -2.56739000           2.95359000         
H                     2.35410000          -0.19628000          -1.89380000         
H                     0.89233000           0.75754000          -1.22715000         
21
Properties=species:S:1:pos:R:3 energy:=T -22.100729676305=T gnorm:=T 0.000521367331=T xtb:=T 6.2.3=T (830e466)=T pbc="F F F"
C        0.30048615      -0.38066348       1.94696967
C        0.63991126      -1.55108338       1.00208343
C        1.50238479       0.19249763       2.68953725
C       -0.64492015      -1.98313861       0.28072615
C        1.17575218      -2.74657429       1.79407598
C        1.66947983      -1.11905157      -0.01641671
C        1.50717282      -0.15480049      -0.90333862
H       -0.15586797       0.41629616       1.35642309
H       -0.44243572      -0.72068296       2.67236803
H        2.60415884      -1.66461793       0.00527330
H        1.20002249       1.06321207       3.26802319
H        2.27345445       0.49742672       1.98599042
H        1.92612703      -0.53540552       3.37650636
H       -0.43328396      -2.78949438      -0.41821203
H       -1.07593662      -1.15469668      -0.27501466
H       -1.38164792      -2.33416181       1.00049451
H        1.33286166      -3.59484824       1.13043087
H        0.46602791      -3.04285258       2.56391390
H        2.12305935      -2.50921109       2.27107679
H        2.28056765       0.10436676      -1.60688427
H        0.60024594       0.42299368      -0.97105667
