20

C                     0.66901000          -2.11952000           1.44652000         
C                     0.83014000          -0.57857000           1.08993000         
C                     0.58826000          -3.06567000           0.23320000         
C                    -0.32946000           0.32379000           1.55354000         
C                     1.10188000          -0.29734000          -0.40073000         
C                    -0.50913000          -2.43275000           2.38932000         
H                     1.59685000          -2.41905000           1.98364000         
H                     1.71986000          -0.21487000           1.65139000         
H                    -0.30843000          -2.85360000          -0.38439000         
H                     0.53985000          -4.12276000           0.57579000         
H                     1.50185000          -2.98787000          -0.39166000         
H                    -1.28043000           0.04649000           1.05434000         
H                    -0.10346000           1.38715000           1.31829000         
H                    -0.45474000           0.27382000           2.65488000         
H                     0.22794000          -0.59776000          -1.01926000         
H                     2.00857000          -0.82807000          -0.75354000         
H                     1.27483000           0.78822000          -0.56516000         
H                    -0.51833000          -3.51253000           2.65272000         
H                    -1.47687000          -2.19734000           1.89469000         
H                    -0.42839000          -1.86716000           3.33897000         
20
Properties=species:S:1:pos:R:3 energy:=T -19.931419721009=T gnorm:=T 0.000596216940=T xtb:=T 6.2.3=T (830e466)=T pbc="F F F"
C        0.01448096      -2.03003179       1.01175139
C        0.13990032      -0.74264420       0.68928966
C        0.54545643      -3.14316243       0.14915423
C       -0.45387292       0.36069852       1.52332527
C        0.88262817      -0.27450583      -0.53225338
C       -0.67415085      -2.48300957       2.27075413
H        2.35000227      -1.23401098       2.24628376
H        2.95775778      -1.11646334       2.72182588
H        0.48722616      -2.89438678      -0.90707249
H       -0.02998101      -4.05072366       0.31773486
H        1.58729402      -3.35809264       0.39309270
H       -1.40470034       0.06442596       1.95899111
H       -0.61908597       1.24375796       0.91038122
H        0.22143322       0.63739029       2.33485985
H        0.20414586      -0.18888914      -1.38275835
H        1.68572823      -0.95470126      -0.80285475
H        1.31475917       0.70737953      -0.34996531
H       -0.28882424      -3.45218884       2.57988734
H       -1.74764945      -2.58633838       2.10407501
H       -0.52274781      -1.77989343       3.08597788
