17

C                     0.77662000          -2.05144000           1.33915000         
C                    -0.04968000          -2.44926000           2.58512000         
C                     0.29797000          -2.75651000           0.06180000         
C                     0.70272000          -0.53047000           1.14349000         
C                    -0.03134000          -3.94893000           2.88479000         
H                     1.84078000          -2.32742000           1.51075000         
H                    -1.10643000          -2.12619000           2.46302000         
H                     0.37469000          -1.92232000           3.46799000         
H                    -0.77020000          -2.52730000          -0.13898000         
H                     0.42610000          -3.85521000           0.14319000         
H                     0.90641000          -2.42464000          -0.80681000         
H                     1.08488000          -0.00427000           2.04374000         
H                    -0.34632000          -0.21018000           0.96183000         
H                     1.32302000          -0.22197000           0.27474000         
H                     1.01121000          -4.31009000           3.00709000         
H                    -0.53139000          -4.52160000           2.07717000         
H                    -0.58996000          -4.14199000           3.82501000         
17
Properties=species:S:1:pos:R:3 energy:=T -16.764329797190=T gnorm:=T 0.000264378574=T xtb:=T 6.2.3=T (830e466)=T pbc="F F F"
C        0.06764157      -2.00915930       1.22119831
C       -0.27258118      -2.53136901       2.39379932
C        0.34683730      -2.82631313      -0.00527179
C        0.18785535      -0.52677736       1.02095185
C       -0.42764360      -3.99292056       2.69106636
H        2.33363044      -2.02368973       2.91665619
H       -0.47275396      -1.86321136       3.22144391
H        3.06070287      -1.92052546       3.18095597
H       -0.49062312      -2.74940635      -0.69962455
H        0.49594897      -3.87492220       0.23262736
H        1.23387931      -2.45137543      -0.51400244
H       -0.07499539       0.01700192       1.92453810
H       -0.46805332      -0.20190965       0.21357676
H        1.20899670      -0.26454766       0.74300947
H        0.46115698      -4.55258899       2.40046948
H       -1.27641960      -4.40964224       2.14808944
H       -0.59449932      -4.14843349       3.75360627
