17

C                     1.82111000           1.07136000           0.88375000         
C                     3.27437000           1.49422000           1.07618000         
C                    -0.34898000          -1.34924000           2.68554000         
C                     1.44707000          -0.19519000           1.58053000         
C                     0.51707000          -0.15469000           2.52444000         
C                     1.34143000           0.74471000          -0.46814000         
C                     0.82766000           0.17797000          -1.40455000         
H                     1.20465000           1.92910000           1.22434000         
H                     1.73040000          -1.14913000           1.11888000         
H                     0.17978000           0.80011000           2.90812000         
H                     3.49205000           2.38867000           0.45292000         
H                     4.00520000           0.68978000           0.86700000         
H                     3.38680000           1.80933000           2.14028000         
H                     0.16891000          -2.31888000           2.53303000         
H                    -1.06802000          -1.24393000           1.83695000         
H                    -0.94372000          -1.28586000           3.61249000         
H                     0.33372000          -0.47054000          -2.08536000         
17
Properties=species:S:1:pos:R:3 energy:=T -19.992562824148=T gnorm:=T 0.000661432035=T xtb:=T 6.2.3=T (830e466)=T pbc="F F F"
C        1.90772459       1.24138368       2.13905001
C        3.38678089       1.59537313       2.00289552
C       -0.22718348      -1.04852554       1.98267716
C        1.39666362       0.57043073       0.90391020
C        0.49155455      -0.40849023       0.83006395
C        0.13373981      -0.92861639      -0.44117291
C       -0.19186790      -1.39696171      -1.49749800
H        1.33598059       2.16136530       2.30663771
H        1.81748717       0.94364642      -0.02166339
H        1.77021061       0.60432617       3.01424120
H        3.54390548       2.26898488       1.16323225
H        3.97702375       0.69686353       1.83664185
H        3.74695708       2.08233134       2.90624692
H        0.00371510      -2.11320112       2.01891814
H       -1.30349448      -0.94889520       1.84389482
H        0.04398445      -0.59402957       2.93031164
H       -0.46368184      -1.78819542      -2.43198708
