18

C                     0.68743000          -2.15935000           1.52548000         
C                    -0.42676000          -2.05149000           2.59546000         
C                     0.22787000          -2.99360000           0.31501000         
C                     1.08486000          -0.75724000           1.04525000         
C                    -0.76045000          -3.30880000           3.37426000         
C                    -0.11163000          -4.47918000           3.29442000         
H                     1.59434000          -2.61351000           1.98022000         
H                    -1.35241000          -1.68077000           2.10243000         
H                    -0.12863000          -1.30087000           3.35885000         
H                    -1.58403000          -3.24047000           4.07860000         
H                    -0.05952000          -4.02335000           0.60203000         
H                     1.04683000          -3.06577000          -0.43208000         
H                    -0.65088000          -2.51798000          -0.17246000         
H                     0.21972000          -0.23395000           0.58429000         
H                     1.90413000          -0.82519000           0.29767000         
H                     1.45433000          -0.15135000           1.90038000         
H                    -0.43067000          -5.30969000           3.91539000         
H                     0.73837000          -4.63764000           2.64381000         
18
Properties=species:S:1:pos:R:3 energy:=T -18.942018891137=T gnorm:=T 0.000607190466=T xtb:=T 6.2.3=T (830e466)=T pbc="F F F"
C        0.85086536      -2.59583898       1.39245585
C       -1.17493066      -2.18054755       2.92406072
C        0.11769638      -2.96162519       0.09822041
C        1.19638345      -1.10638127       1.40562116
C        0.03440217      -3.00350392       2.59717919
C        0.37237346      -4.05518711       3.32657021
H        1.78777220      -3.16348221       1.41796569
H       -1.80083822      -2.04133772       2.04448771
H       -0.87679045      -1.19597887       3.28340713
H       -1.76601558      -2.66165543       3.69885985
H       -0.13259999      -4.02052191       0.09106174
H        0.74867003      -2.74892518      -0.76242061
H       -0.80094080      -2.38835844      -0.00462715
H        0.30355432      -0.49758630       1.28556005
H        1.87597638      -0.87543355       0.58773804
H        1.68177519      -0.83562801       2.34105614
H       -0.20896112      -4.37069941       4.17706801
H        1.24450787      -4.64750895       3.10474585
