18

C          0.78150       -2.04410        1.36617
C          0.13165       -2.29758        2.73437
C          0.05398       -2.82462        0.27506
C          0.77692       -0.55127        1.04736
C          0.23697       -3.72759        3.15525
C         -0.78658       -4.49122        3.48766
H          1.82112       -2.38925        1.40841
H         -0.91741       -1.99653        2.70105
H          0.63857       -1.67673        3.48003
H          1.24318       -4.12793        3.17755
H         -0.98208       -2.49965        0.20523
H          0.06416       -3.88958        0.49530
H          0.52946       -2.66562       -0.69036
H          1.32141        0.00794        1.80531
H         -0.24354       -0.17517        1.01053
H          1.24476       -0.36574        0.08301
H         -0.66280       -5.51653        3.79329
H         -1.79828       -4.11906        3.47389
18

C          0.09801       -1.28612        1.25236
C         -0.38328       -1.35056        2.48251
C         -0.01268       -2.42589        0.28541
C          0.78769       -0.06679        0.71884
C          0.76845       -3.35685        2.96008
C         -0.08861       -3.42777        3.95698
H          1.42567       -2.51224        2.83351
H         -0.88072       -2.23145        2.85107
H         -0.29945       -0.52584        3.17036
H          0.85452       -4.14065        2.22475
H         -0.56520       -2.11518       -0.60120
H         -0.52056       -3.27369        0.73712
H          0.97856       -2.74329       -0.03824
H          0.87601        0.70074        1.48307
H          0.22884        0.34196       -0.12301
H          1.78445       -0.32166        0.35993
H         -0.74962       -4.26969        4.08579
H         -0.17222       -2.64445        4.69287

