11

C                    -0.15099000           0.00938000           0.04766000         
C                    -0.45440000           1.49929000           0.17323000         
C                     0.76863000          -0.46517000           1.16871000         
H                    -1.10311000          -0.56238000           0.08913000         
H                     0.33738000          -0.18297000          -0.93195000         
H                     0.97041000          -1.55059000           1.05001000         
H                     0.29015000          -0.29823000           2.15732000         
H                     1.73466000           0.08228000           1.13343000         
H                    -0.96019000           1.71020000           1.13959000         
H                     0.48429000           2.09065000           0.11563000         
H                    -1.12414000           1.81364000          -0.65476000         
11
Properties=species:S:1:pos:R:3 energy:=T -10.425652578136=T gnorm:=T 0.000717433324=T xtb:=T 6.2.3=T (830e466)=T pbc="F F F"
C       -0.06091201       0.35151049       0.87378344
C        0.05801787       1.66523579       0.85448368
C        0.94629961      -0.58312058       1.45420116
H       -0.93551924      -0.12253011       0.44677199
H       -1.28773498       0.55308136      -2.02716395
H        1.32569849      -1.25268475       0.68174208
H        0.48600836      -1.19943647       2.22635426
H        1.78101991      -0.03798389       1.88833774
H       -0.69388557       2.30354453       0.42194916
H        0.91800039       2.16075579       1.27440827
H       -1.74430284       0.30772785      -2.60686784
