12

C          0.32839        0.02367       -0.09370
C         -0.75832        0.82034       -0.12446
C         -2.09573        0.22352       -0.04557
O          1.56980        0.53895       -0.21817
H          2.35660       -0.25891       -0.49137
H          0.27504       -1.05525        0.01705
H          1.41504        0.34359        3.20554
H         -0.66690        1.89998       -0.20326
H          0.70753        0.53464        3.08432
H         -2.83422        0.99688       -0.08364
H         -2.19173       -0.31640        0.87322
H         -2.23695       -0.44533       -0.86873
12

C          0.39129       -0.09597        0.35824
C         -0.74673        0.88621        0.08679
C         -2.10645        0.23675       -0.04880
O          1.54570        0.47947       -0.26125
H          2.10164       -0.18330       -0.84344
H          0.17556       -1.07482       -0.08365
H          0.57475       -0.22386        1.43113
H         -0.55909        1.41444       -0.86226
H         -0.80775        1.67558        0.84809
H         -2.06086       -0.53517       -0.78837
H         -2.82509        0.97221       -0.34471
H         -2.39503       -0.18610        0.89078
