11

C                     2.09081000           1.61014000          -2.06850000         
C                    -0.34052000          -0.09380000          -1.32171000         
C                     0.95755000          -0.37971000          -1.16778000         
O                     0.96189000           2.43937000          -2.10189000         
O                     1.95172000           0.55456000          -1.18584000         
H                     0.97418000           2.97434000          -1.26831000         
H                     2.99095000           2.20426000          -1.79192000         
H                     2.27331000           1.20980000          -3.08807000         
H                     1.23667000          -1.41211000          -0.98926000         
H                    -1.07251000          -0.89493000          -1.28176000         
H                    -0.71085000           0.91267000          -1.45576000         
11
Properties=species:S:1:pos:R:3 energy:=T -17.576453438719=T gnorm:=T 0.000521365755=T xtb:=T 6.2.3=T (830e466)=T pbc="F F F"
C        1.46265681       1.51989528      -2.14355414
C        0.52710529       0.59304004      -1.35223209
C        1.20770156      -0.67944724      -0.94543721
O        0.78310442       2.61163318      -2.70471060
O        1.19214474      -1.15185078       0.15476730
H        0.39897142       3.14438217      -1.99919543
H        2.28040171       1.86108976      -1.49333859
H        1.89444489       0.98014129      -2.99020478
H        1.74369325      -1.17741486      -1.77725466
H       -0.31118181       0.32375583      -2.00226976
H        0.13415771       1.09936534      -0.46737004
