14

C                     0.40656000          -1.10310000          -1.46708000         
C                     1.00204000          -1.05907000          -2.86897000         
C                     1.45409000          -1.47627000          -0.46174000         
O                     1.32325000          -2.47494000           0.22705000         
H                     2.33541000          -0.85391000          -0.34091000         
H                    -0.00273000          -0.10504000          -1.20918000         
H                    -0.42625000          -1.83927000          -1.44665000         
H                     0.21699000          -0.76582000          -3.59739000         
H                     1.39529000          -2.05915000          -3.15101000         
H                     1.82649000          -0.31550000          -2.91711000         
O                     0.84675000           2.32998000          -0.54674000         
O                     1.50234000           2.42448000          -1.68477000         
H                     1.91344000           3.32608000          -1.66440000         
H                     1.41093000           1.74643000           0.02237000         
14
Properties=species:S:1:pos:R:3 energy:=T -22.564890239941=T gnorm:=T 0.000646278478=T xtb:=T 6.2.3=T (830e466)=T pbc="F F F"
C       -0.10608036      -0.08367897      -2.02741653
C        0.76764505      -0.65793123      -3.13614080
C        2.48822555      -0.94688624       0.55109732
O        1.64846453      -1.79394168       0.48272242
H        3.40627332      -1.07420319       1.15015164
H       -1.16697512      -0.17687988      -2.27383583
H        0.09063797      -0.59817836      -1.08011569
H        0.54389088      -0.17599693      -4.08478879
H        0.58739143      -1.72492841      -3.22377931
H        1.81672413      -0.49718131      -2.90013898
O        0.03682264       1.30769492      -1.86507460
O        1.32927056       1.60908045      -1.32153249
H        1.35425060       2.57018876      -1.40387024
H        2.40805881       0.01774208       0.02619189
