11

C                     0.87008000           1.35993000          -0.39572000         
C                     0.56917000           0.82581000          -1.78762000         
O                     2.15008000           2.67977000           0.76916000         
O                     1.96653000           2.23484000          -0.46070000         
O                     3.25842000           2.09495000           1.17594000         
H                     3.42285000           2.47398000           2.07596000         
H                     1.10597000           0.49668000           0.26658000         
H                    -0.03212000           1.89633000          -0.02403000         
H                    -0.29342000           0.12783000          -1.74243000         
H                     1.45186000           0.28185000          -2.18602000         
H                     0.31867000           1.66423000          -2.47171000         
11
Properties=species:S:1:pos:R:3 energy:=T -19.420529937733=T gnorm:=T 0.000472353068=T xtb:=T 6.2.3=T (830e466)=T pbc="F F F"
C        0.97379218       1.25649046      -0.94001594
C        0.41663485       0.48332713      -2.08551514
O        2.24055326       3.26092956       1.51219666
O        0.82318665       2.43711969      -0.76365149
O        2.82038939       1.96986610       1.66773256
H        3.39860550       2.10538257       2.42853342
H        1.56304658       0.65221137      -0.22822036
H        1.69076539       3.14250533       0.70935573
H       -0.22299113      -0.30920804      -1.70069613
H        1.23347556       0.00975689      -2.62738831
H       -0.14936822       1.12781893      -2.75292100
