20

C                    -1.47636000          -0.49572000           0.01175000         
C                     0.01381000          -0.03955000          -0.06881000         
C                    -2.16001000           0.04499000           1.28400000         
C                    -2.26238000          -0.02642000          -1.23067000         
C                    -1.50431000          -2.03785000           0.05551000         
C                     0.25020000           1.47167000           0.03443000         
H                     0.44828000          -0.39961000          -1.02772000         
H                     0.58902000          -0.51082000           0.75785000         
H                    -1.60465000          -0.26888000           2.19330000         
H                    -3.20210000          -0.33518000           1.35917000         
H                    -2.21923000           1.15364000           1.26787000         
H                    -3.31333000          -0.38789000          -1.18624000         
H                    -1.80187000          -0.42684000          -2.15977000         
H                    -2.29181000           1.07987000          -1.30275000         
H                    -1.02801000          -2.46923000          -0.85092000         
H                    -0.95809000          -2.41396000           0.94776000         
H                    -2.54987000          -2.41254000           0.11097000         
H                    -0.28388000           2.02758000          -0.76091000         
H                     1.33679000           1.67760000          -0.06789000         
H                    -0.06389000           1.85063000           1.02906000         
20
Properties=species:S:1:pos:R:3 energy:=T -19.990084361372=T gnorm:=T 0.000238754270=T xtb:=T 6.2.3=T (830e466)=T pbc="F F F"
C       -2.14808597      -0.88422440       0.06714476
C        0.35374047      -0.20361220      -0.40688240
C       -2.63858865       0.02111248       1.19616952
C       -2.53437327      -0.30466291      -1.29135478
C       -0.64659683      -1.21268925       0.16486459
C        0.43890097       1.12210075       0.34006740
H        0.12889380      -0.01515339      -1.45751967
H        1.33829103      -0.67863755      -0.37040844
H       -2.36731101      -0.39408002       2.16443631
H       -3.72285736       0.10792864       1.15618822
H       -2.21806639       1.01864614       1.12063657
H       -3.61726347      -0.23708110      -1.37364007
H       -2.17001711      -0.93826618      -2.09707273
H       -2.12444606       0.69373464      -1.41987212
H       -0.48216461      -2.15381846      -0.36774047
H       -0.40191253      -1.39091812       1.21493554
H       -2.67382301      -1.84151283       0.17958605
H       -0.43836315       1.73705844       0.16046634
H        1.31051538       1.68178470       0.00532314
H        0.53183778       0.95378061       1.41066226
