20

C                    -1.57063000          -0.36567000          -0.09624000         
C                    -0.41429000           0.54228000          -0.61338000         
C                    -2.37133000           0.33380000           1.02250000         
C                    -2.52298000          -0.65049000          -1.27627000         
C                    -1.02619000          -1.71109000           0.42942000         
C                     0.61217000           0.97779000           0.43910000         
H                    -0.84635000           1.46724000          -1.05563000         
H                     0.13184000           0.00700000          -1.42182000         
H                    -3.22615000          -0.29911000           1.34500000         
H                    -2.77234000           1.30743000           0.66745000         
H                    -1.74152000           0.51512000           1.91786000         
H                    -3.36763000          -1.29832000          -0.95596000         
H                    -1.98560000          -1.16570000          -2.10179000         
H                    -2.94758000           0.29608000          -1.67599000         
H                    -0.45517000          -2.23911000          -0.36472000         
H                    -0.36107000          -1.56718000           1.30524000         
H                    -1.86104000          -2.37062000           0.75150000         
H                     0.13645000           1.59013000           1.23189000         
H                     1.38706000           1.60628000          -0.04828000         
H                     1.12073000           0.10581000           0.89641000         
20
Properties=species:S:1:pos:R:3 energy:=T -19.957676530234=T gnorm:=T 0.000233649589=T xtb:=T 6.2.3=T (830e466)=T pbc="F F F"
C       -1.80432073       0.61730207      -0.33965767
C       -0.51830713       0.86288322      -0.55884129
C       -2.52706673       0.87139746       0.95067550
C       -2.67097270       0.01333072      -1.40757926
C       -0.47030714      -2.88198292       0.44450541
C        0.48836195       1.43095535       0.38856600
H       -0.11057527       0.62340306      -1.53408528
H       -0.59393949      -1.82265501       0.25980563
H       -2.69815166      -0.07128302       1.47189905
H       -3.49891712       1.31979401       0.74989106
H       -1.97387250       1.53069764       1.61192626
H       -3.12675075      -0.90775057      -1.04494946
H       -2.09789632      -0.21131782      -2.30332622
H       -3.47626467       0.69828247      -1.67304634
H        0.03994384      -3.33664856      -0.39453515
H        0.11458056      -3.02811810       1.34339355
H       -1.44082937      -3.34520727       0.56775863
H        0.04815153       1.72944094       1.33496472
H        0.97188482       2.29859740      -0.06078711
H        1.26362890       0.69054893       0.58971196
