23

C                     0.51089000          -2.30943000           1.20197000         
C                     0.83932000          -0.77843000           1.37124000         
C                     1.12370000          -3.21372000           2.30334000         
C                    -0.99904000          -2.60425000           1.12661000         
C                     0.62067000          -0.23830000           2.79466000         
C                     0.04930000           0.09730000           0.38097000         
C                     2.64425000          -3.13967000           2.42594000         
H                     0.93206000          -2.62531000           0.22051000         
H                     1.91960000          -0.64772000           1.14116000         
H                     0.66856000          -2.97193000           3.28847000         
H                     0.86728000          -4.27290000           2.07619000         
H                    -1.16538000          -3.69261000           0.96866000         
H                    -1.46328000          -2.09909000           0.25503000         
H                    -1.51839000          -2.29352000           2.05572000         
H                     1.27953000          -0.75054000           3.52359000         
H                    -0.43396000          -0.35289000           3.11504000         
H                     0.89422000           0.83947000           2.83279000         
H                    -1.03619000           0.08810000           0.62378000         
H                     0.19074000          -0.25305000          -0.66228000         
H                     0.38424000           1.15500000           0.44505000         
H                     3.12487000          -3.43237000           1.47014000         
H                     2.97303000          -3.84402000           3.22042000         
H                     2.98220000          -2.12400000           2.71303000         
23
Properties=species:S:1:pos:R:3 energy:=T -23.155763914572=T gnorm:=T 0.000466204837=T xtb:=T 6.2.3=T (830e466)=T pbc="F F F"
C        0.48339944      -3.09078804       0.87279995
C        1.14033594      -0.72753368       1.59654952
C        0.84864005      -2.16993834       2.05613325
C       -1.00802446      -3.39857657       0.78532288
C        1.51481748       0.17870218       2.77073089
C       -0.05789361      -0.11311744       0.87267645
C        2.03972360      -2.76127594       2.81338506
H        0.82067699      -2.64293850      -0.06372335
H        1.98763321      -0.75701504       0.90074471
H       -0.00376364      -2.13615813       2.74400035
H        1.01627611      -4.03804493       0.97810586
H       -1.21217566      -4.03928964      -0.07025433
H       -1.59482298      -2.49043237       0.67945231
H       -1.34014983      -3.91531541       1.68351474
H        2.47161443      -0.09899312       3.20312498
H        0.75319693       0.12837691       3.54650714
H        1.58968563       1.21084170       2.43468185
H       -0.92319564      -0.08644517       1.53191833
H       -0.31753924      -0.67323496      -0.02039541
H        0.17133519       0.90677576       0.57123205
H        2.93240107      -2.74186268       2.19089041
H        1.83348800      -3.79432818       3.08576702
H        2.24256099      -2.21328841       3.72886536
