23

C          0.60882       -0.54196        1.09474
C          0.75342       -2.07306        1.22866
C          1.31765       -0.03179       -0.16801
C         -0.84525       -0.07512        1.12457
C         -0.00734       -2.85039        0.15649
C          0.33211       -2.56065        2.61519
C          1.58796        1.46867       -0.13972
H          1.12179       -0.10335        1.95974
H          1.82100       -2.29898        1.11321
H          0.71404       -0.26650       -1.04674
H          2.27268       -0.55304       -0.27266
H         -1.36200       -0.46754        1.99603
H         -1.37397       -0.39597        0.23055
H         -0.89135        1.00980        1.17435
H          0.29156       -2.53754       -0.84032
H         -1.07963       -2.70780        0.26173
H          0.20187       -3.91383        0.25404
H          0.59028       -3.61055        2.73616
H         -0.74141       -2.46245        2.75577
H          0.83629       -1.99337        3.39452
H          0.66119        2.03527       -0.10354
H          2.13155        1.76915       -1.03303
H          2.18693        1.73299        0.72948
23

C         -0.14210        0.90087        0.98273
C          1.02506       -1.69767        1.01538
C          0.55314        0.88133       -0.14165
C         -1.56710        0.47523        1.10943
C          0.03508       -2.18962       -0.03267
C          0.59435       -2.08938        2.42337
C          1.97943        1.30355       -0.26874
H          0.32305        1.24357        1.89897
H          2.01169       -2.11874        0.80883
H          0.08732        0.53739       -1.05690
H          1.10331       -0.61083        0.95092
H         -1.65708       -0.33082        1.83754
H         -1.95782        0.13223        0.15441
H         -2.17978        1.30529        1.46165
H          0.36175       -1.90731       -1.03084
H         -0.94672       -1.75534        0.14148
H         -0.05679       -3.27333        0.00577
H          0.52834       -3.17172        2.51653
H         -0.38190       -1.66711        2.65256
H          1.30718       -1.72392        3.15940
H          2.06778        2.12823       -0.97615
H          2.58522        0.47964       -0.64671
H          2.37965        1.62140        0.69136

