20

C                     0.93416000          -0.59571000           1.16642000         
C                     1.27902000           0.74827000           0.60268000         
C                     1.95021000          -1.72647000           0.83111000         
C                     2.64244000           1.24346000           1.20284000         
C                     0.74797000          -0.35616000           2.65599000         
C                    -0.28594000          -0.91795000           3.23951000         
C                     1.43029000           0.69621000          -0.84896000         
C                     1.46473000           0.59715000          -2.04282000         
H                    -0.02892000          -0.92873000           0.70457000         
H                     0.48496000           1.47206000           0.86788000         
H                     1.38810000           0.29486000           3.26623000         
H                     1.64872000          -2.37707000          -0.03051000         
H                     1.98219000          -2.38196000           1.71195000         
H                     2.98078000          -1.38745000           0.58697000         
H                     3.25856000           0.44747000           1.69906000         
H                     2.50070000           2.02680000           1.97895000         
H                     3.24500000           1.66031000           0.38559000         
H                    -0.92421000          -1.53168000           2.62268000         
H                    -0.46864000          -0.77372000           4.29299000         
H                     1.47329000           0.50040000          -3.09054000         
20
Properties=species:S:1:pos:R:3 energy:=T -23.145038985754=T gnorm:=T 0.000307735863=T xtb:=T 6.2.3=T (830e466)=T pbc="F F F"
C        1.01813927      -0.56158596       0.37489960
C        1.16707720       0.57021611       1.41784007
C        1.96860860      -1.73515365       0.62666718
C        2.57859295       1.16014727       1.41512307
C        0.78846925       0.14334701       2.81075140
C       -0.13683938      -0.73427521       3.15256790
C        1.22933066      -0.03175171      -0.96081334
C        1.41439704       0.40388911      -2.06000332
H       -0.01368559      -0.92931602       0.41854325
H        0.47258171       1.36864783       1.11805653
H        1.34105680       0.65081136       3.59206988
H        1.74132598      -2.55080418      -0.05688788
H        1.85795701      -2.09218974       1.64816532
H        3.00132616      -1.43706554       0.46475704
H        3.29517384       0.45182712       1.82380261
H        2.60910529       2.06319193       2.02116464
H        2.87766271       1.41549249       0.40109391
H       -0.73256972      -1.27257654       2.43453330
H       -0.34410095      -0.95503192       4.18624611
H        1.56980118       0.78227025      -3.02598728
