13

C          0.15332        1.12250       -0.37263
C         -0.96888        0.84026        0.64565
C         -1.26901       -0.65039        0.47474
O          1.06721        0.16467        0.25041
O          2.27679       -0.34031       -0.38323
H          2.95063        0.12732        0.14463
H          0.54542        2.14650       -0.35243
H         -0.13725        0.82579       -1.38445
H         -0.60662        1.05843        1.65534
H         -1.86847        1.43298        0.44465
H         -1.62025       -0.83178       -0.51956
H         -2.01964       -0.94596        1.17765
H         -0.37701       -1.21581        0.64661
13

C         -0.68581        1.62816       -0.36742
C         -0.15387        0.48054        0.50028
C         -1.08304       -0.75742        0.43638
O          1.15447        0.38371       -0.15631
O          2.11865       -0.67949        0.13060
H          2.75559       -0.19059        0.68499
H         -0.01256        2.48614       -0.29067
H         -0.72436        1.29209       -1.40607
H         -0.02584        0.76087        1.55641
H         -1.69145        1.93288       -0.05984
H         -1.22116       -1.04740       -0.58427
H         -2.03084       -0.51473        0.86960
H         -0.63889       -1.56517        0.97968
