12

C                     0.10533000           0.00211000           0.58733000         
N                     1.53448000           0.23451000           0.78977000         
O                    -0.19017000          -1.36657000           0.68954000         
O                    -0.29401000           0.48249000          -0.66923000         
H                     0.28660000          -1.82344000          -0.05128000         
H                    -0.25191000           1.47310000          -0.61855000         
H                    -0.46965000           0.52821000           1.38267000         
H                     2.07977000          -0.26655000           0.05095000         
H                     1.81228000          -0.14679000           1.72318000         
O                    -1.43370000          -2.46171000          -2.42946000         
H                    -0.77618000          -1.72135000          -2.43717000         
H                    -1.07197000          -3.10911000          -1.77325000         
12
Properties=species:S:1:pos:R:3 energy:=T -20.718896968475=T gnorm:=T 0.000952288133=T xtb:=T 6.2.3=T (830e466)=T pbc="F F F"
C       -0.02752682       0.32992405      -0.17305876
N        1.02247589      -0.51221054       0.33002929
O       -0.10963913      -3.01928060       0.01615187
O        0.40526468       1.68039177      -0.21749905
H        0.35171185      -2.16495855       0.20969057
H       -0.28497996       2.22995233      -0.59872650
H       -0.89830293       0.23042725       0.49119263
H        1.83810786      -0.43787022      -0.27044250
H        1.29747177      -0.20611141       1.25825484
O       -0.77229983      -2.71889328      -1.20755351
H       -0.30064473      -0.02343881      -1.17633614
H       -1.19076864      -3.56303197      -1.41720273
