8

C                     11.62763000         -0.85500000           2.30957000         
N                     10.68032000         -0.38348000           1.58713000         
H                     9.70987000          -0.37890000           1.93335000         
H                     11.41955000         -1.25465000           3.29748000         
H                     12.64571000         -0.84986000           1.93616000         
O                     11.51251000          2.17667000           3.54227000         
H                     11.59169000          2.24223000           2.55731000         
H                     12.34532000          1.72338000           3.82804000         
8
Properties=species:S:1:pos:R:3 energy:=T -11.654834716609=T gnorm:=T 0.000540880605=T xtb:=T 6.2.3=T (830e466)=T pbc="F F F"
C       11.73000208      -0.15026562       2.77703710
N       10.80363215       0.22885973       1.74927916
H        9.86179044       0.29047043       2.11853811
H       11.41813042      -1.11292831       3.18943033
H       12.72290770      -0.25968402       2.31800700
O       11.79463640       0.72367611       3.88720730
H       11.04575520       1.12717225       1.34417055
H       12.15574562       1.57308944       3.60764043
