8

C                     11.57321000         -0.87353000           2.19658000         
N                     10.33742000         -0.63873000           1.95323000         
H                     9.72151000          -0.25974000           2.68733000         
H                     11.98792000         -0.67458000           3.18020000         
H                     12.21253000         -1.26975000           1.41566000         
O                     11.64151000          2.33937000           3.08549000         
H                     12.40574000          1.99697000           2.55684000         
H                     11.65267000          1.80019000           3.91608000         
8
Properties=species:S:1:pos:R:3 energy:=T -11.609074898078=T gnorm:=T 0.000867657683=T xtb:=T 6.2.3=T (830e466)=T pbc="F F F"
C       10.78066569      -0.22608661       2.34587833
N        9.80494448      -0.82976455       1.86106662
H        8.90081434      -0.44475417       2.12405562
H       14.06504977       1.08585901       3.33692049
H       11.77918786      -0.58479103       2.10492936
O       10.70910175       0.85253357       3.15834151
H       13.91390313       1.39260795       2.63803069
H       11.57884299       1.17459584       3.42218738
