9

N                    -2.63744000          -0.35083000           0.95273000         
C                    -2.82376000           0.81741000           0.30262000         
O                    -3.26882000           1.78776000           0.89454000         
H                    -2.26142000          -1.16677000           0.44889000         
H                    -2.86748000          -0.43951000           1.95357000         
H                    -2.57773000           0.89845000          -0.75122000         
O                     0.19076000          -0.10348000          -1.37585000         
H                    -0.55370000          -0.71009000          -1.61755000         
H                     0.16320000          -0.05803000          -0.38702000         
9
Properties=species:S:1:pos:R:3 energy:=T -15.716360672114=T gnorm:=T 0.000827072582=T xtb:=T 6.2.3=T (830e466)=T pbc="F F F"
N       -2.25891016      -0.39109456       1.06725540
C       -1.86901295       0.87485178       0.73190057
O       -2.54718814       1.84218641       0.91921500
H       -1.79237745      -1.21408889       0.72573706
H       -3.20392234      -0.50157998       1.39283753
H       -2.14877158      -0.14596442      -2.24767246
O       -0.63543331       0.95985905       0.19715836
H       -1.99884590      -0.85825375      -2.52216286
H       -0.18192816       0.10899437       0.15644140
