9

N                    -2.71818000          -0.44514000           0.29383000         
C                    -3.05210000           0.83247000           0.57325000         
O                    -2.50203000           1.42744000           1.48620000         
H                    -1.99723000          -0.93385000           0.84512000         
H                    -3.18428000          -0.94240000          -0.47843000         
H                    -3.81265000           1.33633000          -0.01451000         
O                     0.27288000          -0.23281000          -1.15947000         
H                     0.37035000          -0.93704000          -0.47015000         
H                    -0.01316000           0.57002000          -0.65523000         
9
Properties=species:S:1:pos:R:3 energy:=T -15.645868918374=T gnorm:=T 0.000627212943=T xtb:=T 6.2.3=T (830e466)=T pbc="F F F"
N       -2.44442035       0.17586290      -0.81021015
C       -2.75366649       0.79260442       0.33463240
O       -1.95091355       1.43709128       0.97099348
H       -0.59556286      -1.31888637       1.57204355
H       -3.02308663      -0.42545925      -1.37084558
H       -3.80948674       0.65543920       0.61007603
O       -1.12743256       0.24591553      -1.27175745
H       -0.24851789      -1.68119368       0.97790072
H       -0.68331293       0.79364596      -0.59222300
