9

N                    -2.91122000          -0.67631000           0.35119000         
C                    -2.65864000           0.59448000           0.73008000         
O                    -2.31479000           0.83925000           1.87527000         
H                    -2.81820000          -1.45428000           1.02101000         
H                    -3.19976000          -0.87731000          -0.61690000         
H                    -2.75926000           1.40464000           0.01496000         
O                     0.06794000           0.08197000          -1.33134000         
H                     0.16132000          -0.26451000          -0.40838000         
H                    -0.20389000           1.02707000          -1.21518000         
9
Properties=species:S:1:pos:R:3 energy:=T -15.730672680413=T gnorm:=T 0.000965619048=T xtb:=T 6.2.3=T (830e466)=T pbc="F F F"
N       -2.53593203      -0.87824582       0.19330740
C       -1.91340045       0.41309584       0.08348800
O       -0.98444410       0.58667351       1.10109298
H       -3.39818728      -0.84268618       0.71844650
H       -2.71341941      -1.25236040      -0.72869984
H       -2.61688056       1.26312406       0.19855784
O       -1.31070465       0.46228229      -1.17681863
H       -0.50703703      -0.24648319       1.21071492
H       -0.65649448       1.16959988      -1.17937917
