8

S                     0.87808000          -2.85076000          -0.17488000         
O                    -1.19804000          -2.97037000           2.78625000         
Cl                    1.63030000          -1.57674000           1.31889000         
Cl                    1.76763000          -3.11481000          -2.06042000         
O                    -0.59787000          -2.49399000          -0.39902000         
O                     0.68201000          -4.24138000           0.44766000         
H                    -0.96973000          -3.92677000           2.67434000         
H                    -1.89353000          -2.79993000           2.10163000         
