9

C                    -2.49798000          -0.04283000           1.20364000         
C                    -1.15263000          -0.08409000           1.85923000         
C                    -0.03093000          -0.00612000           1.13983000         
H                    -1.08901000          -0.17914000           2.93920000         
H                    -3.29310000          -0.12124000           1.97428000         
H                    -2.62293000           0.91416000           0.65423000         
H                    -2.60020000          -0.89092000           0.49400000         
H                    -0.06667000           0.08939000           0.05862000         
H                     0.93467000          -0.03784000           1.63400000         
