8

C                     0.01901000          -0.03818000           1.07439000         
C                    -0.69474000           1.21690000           1.58011000         
H                     0.03904000          -0.07283000          -0.02002000         
H                     1.05631000          -0.07591000           1.42377000         
H                    -0.47906000          -0.94879000           1.42361000         
H                    -0.71442000           1.25183000           2.67451000         
H                    -0.19690000           2.12750000           1.23050000         
H                    -1.73215000           1.25439000           1.23104000         
