18

C                    -5.87591000          -0.99747000           0.10302000         
C                    -6.78087000           0.25252000           0.16466000         
C                    -5.26328000          -1.33655000          -1.24445000         
C                    -5.44598000          -0.65890000          -2.38767000         
H                    -5.06629000          -0.91429000           0.85880000         
H                    -6.49408000          -1.87695000           0.38016000         
H                    -4.62634000          -2.21513000          -1.28343000         
H                    -7.53276000           0.17269000          -0.64472000         
H                    -7.33728000           0.24746000           1.12486000         
H                    -4.95317000          -0.99909000          -3.29371000         
H                    -6.06988000           0.22157000          -2.45709000         
C                    -6.03954000           1.60412000           0.06964000         
C                    -5.23724000           1.93199000           1.33094000         
H                    -5.37888000           1.63980000          -0.81965000         
H                    -6.80161000           2.40438000          -0.04099000         
H                    -4.74977000           2.92458000           1.21104000         
H                    -5.91118000           1.97760000           2.21182000         
H                    -4.45392000           1.17845000           1.53044000         
