18

C                    -5.67323000          -0.23725000           0.53775000         
C                    -5.64944000          -1.73539000           0.22320000         
C                    -5.65380000           0.70615000          -0.66865000         
C                    -5.64771000           0.25517000          -1.93886000         
H                    -6.58680000          -0.02724000           1.13043000         
H                    -4.78642000          -0.02648000           1.17145000         
H                    -4.72394000          -2.00685000          -0.32828000         
H                    -6.53970000          -2.02489000          -0.37321000         
H                    -5.66253000          -2.31120000           1.17283000         
H                    -5.62044000           0.95223000          -2.77221000         
H                    -5.65841000          -0.79837000          -2.19046000         
C                    -5.61826000           2.21615000          -0.47741000         
C                    -5.55808000           2.68442000           0.97700000         
H                    -4.72000000           2.62022000          -0.99426000         
H                    -6.51916000           2.65889000          -0.95421000         
H                    -5.52637000           3.79373000           1.00571000         
H                    -6.45504000           2.34562000           1.53495000         
H                    -4.64172000           2.30339000           1.47563000         
