18

C                    -5.72084000          -0.95635000          -0.22893000         
C                    -5.08197000          -2.25284000           0.17746000         
C                    -5.64342000          -0.51523000          -1.49257000         
C                    -6.26542000           0.77968000          -1.96040000         
H                    -6.25167000          -0.38649000           0.52499000         
H                    -5.13044000          -1.12519000          -2.23259000         
H                    -3.98681000          -2.21793000           0.00302000         
H                    -5.51618000          -3.08941000          -0.40959000         
H                    -5.26157000          -2.43733000           1.25653000         
H                    -6.17032000           0.80042000          -3.06806000         
H                    -7.34835000           0.78699000          -1.71309000         
C                    -5.57993000           2.06545000          -1.45595000         
C                    -5.65842000           2.29867000           0.05195000         
H                    -4.51751000           2.07379000          -1.77842000         
H                    -6.08357000           2.92410000          -1.94942000         
H                    -5.20024000           3.28117000           0.29382000         
H                    -6.71676000           2.30807000           0.38614000         
H                    -5.09265000           1.53096000           0.61337000         
