12

C                     6.54423000           1.27508000           0.99512000         
C                     4.56848000           2.66524000           0.07332000         
C                     5.16797000           1.85066000           1.18684000         
C                     4.48867000           1.63763000           2.32459000         
H                     6.54564000           0.60414000           0.11067000         
H                     7.26967000           2.09861000           0.82668000         
H                     6.87820000           0.68949000           1.87878000         
H                     3.55140000           3.03380000           0.32615000         
H                     5.21646000           3.54325000          -0.13376000         
H                     4.49631000           2.04439000          -0.84332000         
H                     3.49328000           2.04639000           2.46829000         
H                     4.91400000           1.04562000           3.12933000         
