
  xtb     09052121283D
 xtb: 6.4.0 (d4b70c2)
 48 51  0     0  0            999 V2000
   -3.1387    0.8263    0.2134 Si  0  0  0  0  0  0  0  0  0  0  0  0
   -3.6571    2.5571   -0.3920 C   0  0  0  0  0  0  0  0  0  0  0  0
   -2.8107    3.2374   -0.4196 H   0  0  0  0  0  0  0  0  0  0  0  0
   -4.4127    2.9929    0.2536 H   0  0  0  0  0  0  0  0  0  0  0  0
   -4.0717    2.5092   -1.3954 H   0  0  0  0  0  0  0  0  0  0  0  0
   -4.5593   -0.4263    0.1702 C   0  0  0  0  0  0  0  0  0  0  0  0
   -5.0864   -0.3939   -0.7781 H   0  0  0  0  0  0  0  0  0  0  0  0
   -5.2801   -0.2286    0.9567 H   0  0  0  0  0  0  0  0  0  0  0  0
   -4.1838   -1.4368    0.2983 H   0  0  0  0  0  0  0  0  0  0  0  0
   -2.3046    0.9322    1.9252 C   0  0  0  0  0  0  0  0  0  0  0  0
   -1.0605   -2.3681   -0.9210 O   0  0  0  0  0  0  0  0  0  0  0  0
   -1.4706    1.6289    1.9182 H   0  0  0  0  0  0  0  0  0  0  0  0
   -1.9232   -0.0411    2.2236 H   0  0  0  0  0  0  0  0  0  0  0  0
   -2.9999    1.2605    2.6911 H   0  0  0  0  0  0  0  0  0  0  0  0
   -0.0204   -1.7647   -1.0979 C   0  0  0  0  0  0  0  0  0  0  0  0
    1.2829   -2.3841   -0.5650 C   0  0  0  0  0  0  0  0  0  0  0  0
    0.9441   -3.0708    0.2147 H   0  0  0  0  0  0  0  0  0  0  0  0
    1.6835   -3.0018   -1.3737 H   0  0  0  0  0  0  0  0  0  0  0  0
    0.0646   -0.4236   -1.6505 C   0  0  0  0  0  0  0  0  0  0  0  0
   -0.8527    0.4589   -1.1416 C   0  0  0  0  0  0  0  0  0  0  0  0
   -2.0863    0.1258   -0.8759 O   0  0  0  0  0  0  0  0  0  0  0  0
    1.4207    0.1786   -1.9712 C   0  0  0  0  0  0  0  0  0  0  0  0
    1.9933   -0.1291    0.4220 C   0  0  0  0  0  0  0  0  0  0  0  0
    2.4459   -1.5115   -0.0000 C   0  0  0  0  0  0  0  0  0  0  0  0
    1.7680    0.2086    1.8675 C   0  0  0  0  0  0  0  0  0  0  0  0
   -0.5234    1.7146   -0.7659 O   0  0  0  0  0  0  0  0  0  0  0  0
    3.1877   -2.2754    1.1058 C   0  0  0  0  0  0  0  0  0  0  0  0
    2.6389   -0.5885    2.8320 C   0  0  0  0  0  0  0  0  0  0  0  0
    0.7170   -0.0159    2.0869 H   0  0  0  0  0  0  0  0  0  0  0  0
    1.9099    1.2801    2.0250 H   0  0  0  0  0  0  0  0  0  0  0  0
    2.5672   -2.0684    2.4805 C   0  0  0  0  0  0  0  0  0  0  0  0
    4.2216   -1.9221    1.1420 H   0  0  0  0  0  0  0  0  0  0  0  0
    3.2143   -3.3371    0.8529 H   0  0  0  0  0  0  0  0  0  0  0  0
    2.2960   -0.4178    3.8543 H   0  0  0  0  0  0  0  0  0  0  0  0
    3.6754   -0.2500    2.7648 H   0  0  0  0  0  0  0  0  0  0  0  0
    3.1080   -2.6608    3.2210 H   0  0  0  0  0  0  0  0  0  0  0  0
    1.5258   -2.3961    2.4798 H   0  0  0  0  0  0  0  0  0  0  0  0
    1.3504    1.4095   -2.8870 C   0  0  0  0  0  0  0  0  0  0  0  0
    1.6515    0.6886   -0.5744 C   0  0  0  0  0  0  0  0  0  0  0  0
    2.1043   -0.5737   -2.3509 H   0  0  0  0  0  0  0  0  0  0  0  0
    0.8940    1.9846   -0.6199 C   0  0  0  0  0  0  0  0  0  0  0  0
    1.3734    2.6103   -1.9285 C   0  0  0  0  0  0  0  0  0  0  0  0
    2.3852    2.9952   -1.7999 H   0  0  0  0  0  0  0  0  0  0  0  0
    0.7216    3.4211   -2.2482 H   0  0  0  0  0  0  0  0  0  0  0  0
    0.4312    1.3953   -3.4732 H   0  0  0  0  0  0  0  0  0  0  0  0
    2.1928    1.4348   -3.5769 H   0  0  0  0  0  0  0  0  0  0  0  0
    0.9800    2.6308    0.2545 H   0  0  0  0  0  0  0  0  0  0  0  0
    3.1678   -1.3714   -0.8122 H   0  0  0  0  0  0  0  0  0  0  0  0
  1  2  1  0  0  0  0
  2  3  1  0  0  0  0
  2  4  1  0  0  0  0
  2  5  1  0  0  0  0
  1  6  1  0  0  0  0
  6  7  1  0  0  0  0
  6  8  1  0  0  0  0
  6  9  1  0  0  0  0
  1 10  1  0  0  0  0
 10 12  1  0  0  0  0
 10 13  1  0  0  0  0
 10 14  1  0  0  0  0
 11 15  2  0  0  0  0
 15 16  1  0  0  0  0
 16 17  1  0  0  0  0
 16 18  1  0  0  0  0
 15 19  1  0  0  0  0
 19 20  4  0  0  0  0
  1 21  1  0  0  0  0
 20 21  1  0  0  0  0
 19 22  1  0  0  0  0
 16 24  1  0  0  0  0
 23 24  1  0  0  0  0
 23 25  1  0  0  0  0
 20 26  1  0  0  0  0
 24 27  1  0  0  0  0
 25 28  1  0  0  0  0
 25 29  1  0  0  0  0
 25 30  1  0  0  0  0
 27 31  1  0  0  0  0
 28 31  1  0  0  0  0
 27 32  1  0  0  0  0
 27 33  1  0  0  0  0
 28 34  1  0  0  0  0
 28 35  1  0  0  0  0
 31 36  1  0  0  0  0
 31 37  1  0  0  0  0
 22 38  1  0  0  0  0
 22 39  1  0  0  0  0
 23 39  2  0  0  0  0
 22 40  1  0  0  0  0
 26 41  1  0  0  0  0
 39 41  1  0  0  0  0
 38 42  1  0  0  0  0
 41 42  1  0  0  0  0
 42 43  1  0  0  0  0
 42 44  1  0  0  0  0
 38 45  1  0  0  0  0
 38 46  1  0  0  0  0
 41 47  1  0  0  0  0
 24 48  1  0  0  0  0
M  END
