
  xtb     09052121283D
 xtb: 6.4.0 (d4b70c2)
 48 51  0     0  0            999 V2000
   -3.0164    0.7717   -0.3645 Si  0  0  0  0  0  0  0  0  0  0  0  0
   -2.6745    1.0753   -2.2097 C   0  0  0  0  0  0  0  0  0  0  0  0
   -1.9672    1.8886   -2.3526 H   0  0  0  0  0  0  0  0  0  0  0  0
   -3.5869    1.3393   -2.7348 H   0  0  0  0  0  0  0  0  0  0  0  0
   -2.2638    0.1883   -2.6795 H   0  0  0  0  0  0  0  0  0  0  0  0
   -4.0525   -0.7775    0.0087 C   0  0  0  0  0  0  0  0  0  0  0  0
   -4.1037   -0.9678    1.0778 H   0  0  0  0  0  0  0  0  0  0  0  0
   -3.6223   -1.6511   -0.4675 H   0  0  0  0  0  0  0  0  0  0  0  0
   -5.0687   -0.6658   -0.3553 H   0  0  0  0  0  0  0  0  0  0  0  0
   -3.8767    2.3117    0.3650 C   0  0  0  0  0  0  0  0  0  0  0  0
   -1.6158    0.8199    0.5207 O   0  0  0  0  0  0  0  0  0  0  0  0
   -4.0959    2.1907    1.4214 H   0  0  0  0  0  0  0  0  0  0  0  0
   -4.8157    2.5006   -0.1435 H   0  0  0  0  0  0  0  0  0  0  0  0
   -3.2636    3.2013    0.2590 H   0  0  0  0  0  0  0  0  0  0  0  0
   -0.6555    0.0462    1.0105 C   0  0  0  0  0  0  0  0  0  0  0  0
    0.1619    0.7062    2.0953 C   0  0  0  0  0  0  0  0  0  0  0  0
   -0.3966    1.5685    2.4614 H   0  0  0  0  0  0  0  0  0  0  0  0
    0.3185    0.0376    2.9395 H   0  0  0  0  0  0  0  0  0  0  0  0
   -0.2438   -1.1546    0.5449 C   0  0  0  0  0  0  0  0  0  0  0  0
   -0.3952   -1.5524   -0.8660 C   0  0  0  0  0  0  0  0  0  0  0  0
    0.7625   -1.7748   -1.5348 O   0  0  0  0  0  0  0  0  0  0  0  0
    0.9911   -1.7473    1.1825 C   0  0  0  0  0  0  0  0  0  0  0  0
    2.2102    0.3539    0.4886 C   0  0  0  0  0  0  0  0  0  0  0  0
    1.5251    1.2276    1.5316 C   0  0  0  0  0  0  0  0  0  0  0  0
    3.2558    1.0240   -0.3641 C   0  0  0  0  0  0  0  0  0  0  0  0
   -1.4274   -1.6012   -1.4879 O   0  0  0  0  0  0  0  0  0  0  0  0
    1.2108    2.6112    0.9249 C   0  0  0  0  0  0  0  0  0  0  0  0
    2.8116    2.3608   -0.9446 C   0  0  0  0  0  0  0  0  0  0  0  0
    3.5697    0.3523   -1.1624 H   0  0  0  0  0  0  0  0  0  0  0  0
    4.1295    1.2023    0.2744 H   0  0  0  0  0  0  0  0  0  0  0  0
    2.3768    3.2628    0.1982 C   0  0  0  0  0  0  0  0  0  0  0  0
    0.8711    3.2689    1.7283 H   0  0  0  0  0  0  0  0  0  0  0  0
    0.3831    2.4911    0.2219 H   0  0  0  0  0  0  0  0  0  0  0  0
    1.9768    2.2053   -1.6309 H   0  0  0  0  0  0  0  0  0  0  0  0
    3.6338    2.8100   -1.5050 H   0  0  0  0  0  0  0  0  0  0  0  0
    3.2121    3.4151    0.8863 H   0  0  0  0  0  0  0  0  0  0  0  0
    2.0694    4.2400   -0.1795 H   0  0  0  0  0  0  0  0  0  0  0  0
    1.2145   -3.2322    0.8536 C   0  0  0  0  0  0  0  0  0  0  0  0
    1.9602   -0.9497    0.3497 C   0  0  0  0  0  0  0  0  0  0  0  0
    1.0468   -1.5743    2.2509 H   0  0  0  0  0  0  0  0  0  0  0  0
    2.0431   -1.8266   -0.8719 C   0  0  0  0  0  0  0  0  0  0  0  0
    2.2181   -3.2321   -0.3068 C   0  0  0  0  0  0  0  0  0  0  0  0
    3.2411   -3.3561    0.0487 H   0  0  0  0  0  0  0  0  0  0  0  0
    2.0041   -3.9949   -1.0530 H   0  0  0  0  0  0  0  0  0  0  0  0
    0.2754   -3.7015    0.5574 H   0  0  0  0  0  0  0  0  0  0  0  0
    1.6009   -3.7712    1.7175 H   0  0  0  0  0  0  0  0  0  0  0  0
    2.7679   -1.5562   -1.6395 H   0  0  0  0  0  0  0  0  0  0  0  0
    2.2050    1.3641    2.3813 H   0  0  0  0  0  0  0  0  0  0  0  0
  1  2  1  0  0  0  0
  2  3  1  0  0  0  0
  2  4  1  0  0  0  0
  2  5  1  0  0  0  0
  1  6  1  0  0  0  0
  6  7  1  0  0  0  0
  6  8  1  0  0  0  0
  6  9  1  0  0  0  0
  1 10  1  0  0  0  0
  1 11  1  0  0  0  0
 10 12  1  0  0  0  0
 10 13  1  0  0  0  0
 10 14  1  0  0  0  0
 11 15  1  0  0  0  0
 15 16  1  0  0  0  0
 16 17  1  0  0  0  0
 16 18  1  0  0  0  0
 15 19  2  0  0  0  0
 19 20  1  0  0  0  0
 20 21  1  0  0  0  0
 19 22  1  0  0  0  0
 16 24  1  0  0  0  0
 23 24  1  0  0  0  0
 23 25  1  0  0  0  0
 20 26  2  0  0  0  0
 24 27  1  0  0  0  0
 25 28  1  0  0  0  0
 25 29  1  0  0  0  0
 25 30  1  0  0  0  0
 27 31  1  0  0  0  0
 28 31  1  0  0  0  0
 27 32  1  0  0  0  0
 27 33  1  0  0  0  0
 28 34  1  0  0  0  0
 28 35  1  0  0  0  0
 31 36  1  0  0  0  0
 31 37  1  0  0  0  0
 22 38  1  0  0  0  0
 22 39  1  0  0  0  0
 23 39  2  0  0  0  0
 22 40  1  0  0  0  0
 21 41  1  0  0  0  0
 39 41  1  0  0  0  0
 38 42  1  0  0  0  0
 41 42  1  0  0  0  0
 42 43  1  0  0  0  0
 42 44  1  0  0  0  0
 38 45  1  0  0  0  0
 38 46  1  0  0  0  0
 41 47  1  0  0  0  0
 24 48  1  0  0  0  0
M  END
