
  xtb     09052121283D
 xtb: 6.4.0 (d4b70c2)
 48 51  0     0  0            999 V2000
    2.4818   -2.2291    0.3624 Si  0  0  0  0  0  0  0  0  0  0  0  0
    3.6288   -1.8577   -1.1130 C   0  0  0  0  0  0  0  0  0  0  0  0
    3.0563   -1.7636   -2.0316 H   0  0  0  0  0  0  0  0  0  0  0  0
    4.3596   -2.6465   -1.2580 H   0  0  0  0  0  0  0  0  0  0  0  0
    4.1742   -0.9285   -0.9669 H   0  0  0  0  0  0  0  0  0  0  0  0
    3.3866   -2.1543    2.0276 C   0  0  0  0  0  0  0  0  0  0  0  0
    2.6852   -2.2217    2.8529 H   0  0  0  0  0  0  0  0  0  0  0  0
    3.9403   -1.2278    2.1428 H   0  0  0  0  0  0  0  0  0  0  0  0
    4.0906   -2.9740    2.1183 H   0  0  0  0  0  0  0  0  0  0  0  0
    1.5049   -3.8411    0.1188 C   0  0  0  0  0  0  0  0  0  0  0  0
   -0.7274   -0.7957    2.3397 O   0  0  0  0  0  0  0  0  0  0  0  0
    0.7918   -3.9826    0.9270 H   0  0  0  0  0  0  0  0  0  0  0  0
    2.1558   -4.7093    0.0938 H   0  0  0  0  0  0  0  0  0  0  0  0
    0.9453   -3.8164   -0.8120 H   0  0  0  0  0  0  0  0  0  0  0  0
   -1.0732    0.0745    1.5882 C   0  0  0  0  0  0  0  0  0  0  0  0
   -2.2567    0.9942    1.7814 C   0  0  0  0  0  0  0  0  0  0  0  0
   -3.0610    0.4723    2.2995 H   0  0  0  0  0  0  0  0  0  0  0  0
   -1.9304    1.8090    2.4323 H   0  0  0  0  0  0  0  0  0  0  0  0
   -0.3997    0.4782    0.2962 C   0  0  0  0  0  0  0  0  0  0  0  0
    0.4433   -0.6225   -0.2906 C   0  0  0  0  0  0  0  0  0  0  0  0
    1.4115   -0.9453    0.5399 O   0  0  0  0  0  0  0  0  0  0  0  0
    0.4162    1.8102    0.5106 C   0  0  0  0  0  0  0  0  0  0  0  0
   -1.4552    1.2832   -0.5359 C   0  0  0  0  0  0  0  0  0  0  0  0
   -2.6708    1.5136    0.3991 C   0  0  0  0  0  0  0  0  0  0  0  0
   -1.8760    0.7999   -1.9156 C   0  0  0  0  0  0  0  0  0  0  0  0
    0.2837   -1.1442   -1.3635 O   0  0  0  0  0  0  0  0  0  0  0  0
   -3.9125    0.7777   -0.1152 C   0  0  0  0  0  0  0  0  0  0  0  0
   -2.6802   -0.5044   -1.8738 C   0  0  0  0  0  0  0  0  0  0  0  0
   -0.9882    0.6563   -2.5309 H   0  0  0  0  0  0  0  0  0  0  0  0
   -2.4682    1.5984   -2.3691 H   0  0  0  0  0  0  0  0  0  0  0  0
   -3.5267   -0.6129   -0.6026 C   0  0  0  0  0  0  0  0  0  0  0  0
   -4.3658    1.3359   -0.9360 H   0  0  0  0  0  0  0  0  0  0  0  0
   -4.6530    0.7161    0.6850 H   0  0  0  0  0  0  0  0  0  0  0  0
   -1.9935   -1.3476   -1.9290 H   0  0  0  0  0  0  0  0  0  0  0  0
   -3.3245   -0.5415   -2.7543 H   0  0  0  0  0  0  0  0  0  0  0  0
   -4.4197   -1.2087   -0.7977 H   0  0  0  0  0  0  0  0  0  0  0  0
   -2.9595   -1.1202    0.1810 H   0  0  0  0  0  0  0  0  0  0  0  0
    1.8299    2.0915    0.0002 C   0  0  0  0  0  0  0  0  0  0  0  0
   -0.4541    2.4064   -0.5569 C   0  0  0  0  0  0  0  0  0  0  0  0
    0.2767    2.2046    1.5179 H   0  0  0  0  0  0  0  0  0  0  0  0
    0.2079    3.2228   -1.3582 C   0  0  0  0  0  0  0  0  0  0  0  0
    1.6212    3.3791   -0.8361 C   0  0  0  0  0  0  0  0  0  0  0  0
    1.7180    4.2711   -0.2104 H   0  0  0  0  0  0  0  0  0  0  0  0
    2.3398    3.4598   -1.6509 H   0  0  0  0  0  0  0  0  0  0  0  0
    2.1707    1.2883   -0.6535 H   0  0  0  0  0  0  0  0  0  0  0  0
    2.5569    2.2186    0.8001 H   0  0  0  0  0  0  0  0  0  0  0  0
   -0.1327    3.6987   -2.2594 H   0  0  0  0  0  0  0  0  0  0  0  0
   -2.8924    2.5841    0.4464 H   0  0  0  0  0  0  0  0  0  0  0  0
  1  2  1  0  0  0  0
  2  3  1  0  0  0  0
  2  4  1  0  0  0  0
  2  5  1  0  0  0  0
  1  6  1  0  0  0  0
  6  7  1  0  0  0  0
  6  8  1  0  0  0  0
  6  9  1  0  0  0  0
  1 10  1  0  0  0  0
 10 12  1  0  0  0  0
 10 13  1  0  0  0  0
 10 14  1  0  0  0  0
 11 15  2  0  0  0  0
 15 16  1  0  0  0  0
 16 17  1  0  0  0  0
 16 18  1  0  0  0  0
 15 19  1  0  0  0  0
 19 20  1  0  0  0  0
  1 21  1  0  0  0  0
 20 21  1  0  0  0  0
 19 22  1  0  0  0  0
 19 23  1  0  0  0  0
 16 24  1  0  0  0  0
 23 24  1  0  0  0  0
 23 25  1  0  0  0  0
 20 26  2  0  0  0  0
 24 27  1  0  0  0  0
 25 28  1  0  0  0  0
 25 29  1  0  0  0  0
 25 30  1  0  0  0  0
 27 31  1  0  0  0  0
 28 31  1  0  0  0  0
 27 32  1  0  0  0  0
 27 33  1  0  0  0  0
 28 34  1  0  0  0  0
 28 35  1  0  0  0  0
 31 36  1  0  0  0  0
 31 37  1  0  0  0  0
 22 38  1  0  0  0  0
 22 39  1  0  0  0  0
 23 39  1  0  0  0  0
 22 40  1  0  0  0  0
 39 41  2  0  0  0  0
 38 42  1  0  0  0  0
 41 42  1  0  0  0  0
 42 43  1  0  0  0  0
 42 44  1  0  0  0  0
 38 45  1  0  0  0  0
 38 46  1  0  0  0  0
 41 47  1  0  0  0  0
 24 48  1  0  0  0  0
M  END
