12
27.621801066607077
C        1.481156       1.293543      -2.276629
C        0.718705       0.786051      -0.983157
C        1.226365      -0.613809      -0.728830
O        0.520933       2.252786      -2.604435
O        0.694304       3.382814      -1.610743
O        1.740230      -1.009206       0.286976
H        0.664177       4.070045      -2.280524
H        2.387260       1.646480      -1.784293
H        1.446183       0.840920      -3.260330
H        0.967000      -1.335054      -1.533330
H       -0.357662       0.688550      -1.143160
H        0.877732       1.380956      -0.089730
12
27.555564504908034
C        1.481144       1.293621      -2.276389
C        0.718735       0.785969      -0.983144
C        1.226269      -0.613873      -0.728716
O        0.520799       2.253041      -2.604253
O        0.694129       3.383038      -1.611035
O        1.740429      -1.009268       0.286933
H        0.664159       4.070341      -2.280777
H        2.387228       1.646751      -1.784190
H        1.446382       0.840803      -3.259992
H        0.966552      -1.335116      -1.533110
H       -0.357612       0.688530      -1.143263
H        0.877788       1.381037      -0.089781
