12
0.0
C        1.322333       1.317403      -2.228487
C        0.702647       0.687928      -0.977242
C        1.260369      -0.671681      -0.680837
O        0.645306       2.468812      -2.652349
O        0.847654       3.516492      -1.701354
O        1.486164      -1.105645       0.411359
H        0.611353       4.303617      -2.209707
H        2.380806       1.546608      -2.052707
H        1.231235       0.649217      -3.089843
H        1.440606      -1.284014      -1.588262
H       -0.371694       0.564519      -1.149324
H        0.832230       1.346445      -0.117056
12
-0.00011620220357144717
C        1.322339       1.317410      -2.228499
C        0.702648       0.687939      -0.977251
C        1.260371      -0.671656      -0.680853
O        0.645316       2.468815      -2.652366
O        0.847643       3.516497      -1.701358
O        1.486175      -1.105598       0.411401
H        0.611357       4.303481      -2.209634
H        2.380815       1.546609      -2.052711
H        1.231245       0.649229      -3.089851
H        1.440571      -1.284018      -1.588289
H       -0.371703       0.564532      -1.149336
H        0.832233       1.346460      -0.117063
