12
168.48061004848387
C        1.672666       1.281472      -2.448210
C        0.652897       1.014810      -0.975038
C        1.204926      -0.507702      -0.813329
O        0.459076       1.756185      -2.602108
O        0.621627       3.225085      -1.380481
O        1.855354      -0.757352       0.173242
H        0.768715       3.816773      -2.117039
H        2.401807       1.636037      -1.735517
H        1.737701       1.016157      -3.500787
H        0.837821      -1.302049      -1.483530
H       -0.437377       0.948503      -1.040566
H        0.901967       1.450361      -0.018608
12
168.47521725716615
C        1.672665       1.281467      -2.448201
C        0.652895       1.014797      -0.975035
C        1.204922      -0.507701      -0.813323
O        0.459070       1.756210      -2.602105
O        0.621621       3.225108      -1.380494
O        1.855361      -0.757367       0.173239
H        0.768709       3.816797      -2.117050
H        2.401811       1.636034      -1.735515
H        1.737715       1.016135      -3.500775
H        0.837811      -1.302041      -1.483530
H       -0.437378       0.948493      -1.040564
H        0.901970       1.450363      -0.018610
12
168.44975851382878
C        1.672679       1.281422      -2.448177
C        0.652892       1.014730      -0.975024
C        1.204891      -0.507692      -0.813329
O        0.459035       1.756284      -2.602072
O        0.621611       3.225185      -1.380524
O        1.855381      -0.757413       0.173186
H        0.768685       3.816878      -2.117076
H        2.401855       1.635974      -1.735524
H        1.737789       1.016035      -3.500741
H        0.837756      -1.301991      -1.483553
H       -0.437380       0.948434      -1.040540
H        0.902007       1.450349      -0.018622
