12
112.52037945817028
C        1.790282       1.404990      -2.643080
C        0.545201       1.635708      -1.067155
C        1.247025      -0.645749      -1.008174
O        0.604219       0.723277      -2.337333
O        0.554243       3.080510      -1.209913
O        1.922339      -0.477404      -0.055249
H        1.070818       3.473476      -1.922142
H        2.485836       1.674601      -1.885298
H        1.933781       1.267871      -3.714888
H        0.952496      -1.599552      -1.461453
H       -0.571486       1.530468      -1.081257
H        0.893819       1.425946      -0.074438
12
112.4470985817934
C        1.790283       1.405151      -2.643211
C        0.545092       1.635869      -1.067074
C        1.246761      -0.645811      -1.008073
O        0.604081       0.723484      -2.337081
O        0.554100       3.080268      -1.209862
O        1.922236      -0.477577      -0.055260
H        1.070735       3.473158      -1.922107
H        2.485960       1.674769      -1.885610
H        1.933704       1.268070      -3.715074
H        0.952107      -1.599591      -1.461265
H       -0.571610       1.530645      -1.081187
H        0.893819       1.425966      -0.074402
