12
104.2466453408615
C        1.859989       1.320964      -2.703463
C        0.599456       1.115829      -0.976925
C        1.130358      -0.412554      -0.845556
O        0.579810       1.310445      -2.461204
O        0.557957       3.227987      -1.280637
O        1.804427      -0.652163       0.113956
H        0.722981       3.778744      -2.048176
H        2.574354       1.687058      -1.991352
H        2.055654       1.135499      -3.759919
H        0.745893      -1.203044      -1.498468
H       -0.504022       1.021880      -0.911988
H        0.968248       1.430230      -0.007702
12
104.17839144915524
C        1.860038       1.320958      -2.703537
C        0.599572       1.115351      -0.976895
C        1.130362      -0.412687      -0.845452
O        0.579894       1.310348      -2.460984
O        0.557919       3.228165      -1.280894
O        1.804436      -0.652441       0.114034
H        0.722637       3.778996      -2.048467
H        2.574510       1.687006      -1.991482
H        2.055709       1.135581      -3.759985
H        0.745755      -1.203048      -1.498406
H       -0.503899       1.021306      -0.911823
H        0.968445       1.429956      -0.007765
