12

C                     0.70700000           1.84707000          -2.70717000         
C                     0.54339000           0.56667000          -1.89143000         
C                     1.74772000           0.22400000           0.16906000         
O                     1.69937000           0.30996000          -1.17979000         
O                     0.85445000           2.95811000          -1.86459000         
O                     2.80701000          -0.02675000           0.71974000         
H                     1.78332000           2.93358000          -1.51601000         
H                     1.57180000           1.76559000          -3.40450000         
H                    -0.20112000           1.99936000          -3.32793000         
H                     0.85876000           0.37712000           0.77363000         
H                     0.35987000          -0.28274000          -2.58269000         
H                    -0.34248000           0.66794000          -1.22414000         
