12

C                     1.00649000          -0.00568000          -2.78630000         
C                    -0.33096000           0.04597000          -2.70635000         
C                     1.45048000           1.45492000          -0.88036000         
O                     2.59613000           1.99797000          -0.27984000         
O                     2.16224000           2.83360000           0.64645000         
O                     1.83916000           0.66353000          -1.94283000         
H                     2.28806000           3.73644000           0.25464000         
H                     0.79942000           2.27381000          -1.26399000         
H                     1.45234000          -0.61104000          -3.56896000         
H                     0.90086000           0.82801000          -0.14191000         
H                    -0.93424000          -0.51096000          -3.41567000         
H                    -0.84088000           0.63335000          -1.95069000         
