12

C                     0.87884000           1.66862000          -3.05642000         
C                     0.10256000           1.23812000          -1.81101000         
C                     2.09235000           0.35982000           0.34466000         
O                     1.82064000           1.39616000          -0.47680000         
O                     0.60933000           1.83559000          -0.63868000         
O                     3.24397000          -0.01305000           0.48749000         
H                     0.85569000           2.77383000          -3.15760000         
H                     1.93479000           1.32988000          -2.99429000         
H                     0.41920000           1.21103000          -3.95728000         
H                     1.29148000          -0.15247000           0.86828000         
H                     0.09300000           0.12961000          -1.71269000         
H                    -0.95277000           1.56276000          -1.93147000         
