12

C                     1.15152000           0.48284000          -3.66743000         
C                     0.67580000           0.55324000          -2.42539000         
C                     1.10865000           0.85297000          -0.07549000         
O                     1.58989000           2.05722000           0.46347000         
O                     0.92209000           3.02586000          -0.13640000         
O                     1.52630000           0.72173000          -1.38564000         
H                     1.58432000           3.45749000          -0.73561000         
H                     2.21780000           0.56150000          -3.85575000         
H                     0.47371000           0.34827000          -4.50417000         
H                     1.53506000           0.01543000           0.51416000         
H                    -0.39614000           0.47494000          -2.26190000         
H                     0.00011000           0.78840000           0.03436000         
