12

C                     0.70325000           0.68764000          -3.48690000         
C                    -0.36381000           0.56211000          -2.70103000         
C                     2.27628000           1.30316000          -0.20381000         
O                     1.81834000           0.82302000           0.97109000         
O                     1.83407000           2.48354000          -0.68593000         
O                     3.09751000           0.66230000          -0.83808000         
H                     1.17711000           3.00928000          -0.20902000         
H                     1.46671000           1.42456000          -3.26093000         
H                     0.81719000           0.05348000          -4.35974000         
H                     1.16772000           1.31036000           1.49525000         
H                    -1.12640000          -0.17519000          -2.92911000         
H                    -0.47885000           1.19564000          -1.82759000         
