12

C                     1.45184000           0.49716000          -2.13643000         
C                     0.13094000           0.32987000          -1.97446000         
C                     2.13065000           0.27901000           0.19449000         
O                     2.36729000           0.45699000          -1.12865000         
O                     0.06498000           3.63659000          -2.47933000         
O                     3.07075000           0.25117000           0.97106000         
H                     0.75293000           3.41341000          -1.80282000         
H                     1.81981000           0.67772000          -3.14137000         
H                     0.32014000           3.10844000          -3.27726000         
H                     1.13028000           0.16412000           0.59206000         
H                    -0.52184000           0.38097000          -2.84006000         
H                    -0.32867000           0.14445000          -1.01303000         
