12

C                     0.81063000           1.12567000          -2.28262000         
C                    -0.48912000           0.82082000          -2.24275000         
C                     1.73322000           0.83399000          -1.12477000         
O                     2.31959000           2.03137000          -0.67428000         
O                     1.39480000           2.67351000           0.01753000         
O                     2.75697000          -0.01969000          -1.55719000         
H                     1.15316000           3.45403000          -0.54479000         
H                     1.21788000           1.59736000          -3.17206000         
H                     2.34349000          -0.90861000          -1.71781000         
H                     1.20254000           0.33706000          -0.27410000         
H                    -1.12429000           1.04492000          -3.09340000         
H                    -0.92978000           0.34947000          -1.36955000         
