12

C                     1.00966000           0.26599000          -2.58421000         
C                    -0.25967000           0.53738000          -2.24667000         
C                     1.97143000           0.19745000          -0.34469000         
O                     2.03299000           0.11891000          -1.69712000         
O                     1.47697000           3.38036000          -0.88857000         
O                     2.99112000           0.05563000           0.30907000         
H                     0.62270000           3.82802000          -1.11214000         
H                     1.85246000           3.11141000          -1.76447000         
H                     1.24083000           0.15736000          -3.63898000         
H                     1.04379000           0.38422000           0.18135000         
H                    -1.00795000           0.63788000          -3.02634000         
H                    -0.58523000           0.66529000          -1.22303000         
