12

C                     1.06318000           0.91604000          -3.18588000         
C                     0.42573000           0.80026000          -2.01702000         
C                     1.16005000           0.85789000          -0.70041000         
O                     1.83218000           2.08878000          -0.56917000         
O                     0.92647000           2.98408000          -0.21565000         
O                     2.10856000          -0.17375000          -0.63928000         
H                     0.82913000           3.57361000          -1.00688000         
H                     2.13919000           1.05663000          -3.22396000         
H                     0.50549000           0.86954000          -4.11558000         
H                     0.44287000           0.72620000           0.14769000         
H                    -0.65106000           0.66006000          -2.01258000         
H                     1.60730000          -1.01946000          -0.49706000         
