12

C                     1.15563000           0.46747000          -3.16099000         
C                     0.56526000          -0.14629000          -2.12998000         
C                     1.28380000          -0.47611000          -0.88246000         
O                     1.22324000           2.73309000          -0.48315000         
O                     1.15863000           3.93700000           0.04540000         
O                     2.46450000          -0.20148000          -0.73675000         
H                     1.20016000           4.55476000          -0.72866000         
H                     2.20222000           0.75405000          -3.12656000         
H                     0.58460000           0.68975000          -4.05669000         
H                     0.74889000          -0.96878000          -0.07753000         
H                    -0.48408000          -0.41282000          -2.20727000         
H                     0.28625000           2.40927000          -0.49115000         
