12

C                     0.80819000           1.65367000          -3.11429000         
C                    -0.01242000           2.00406000          -2.12025000         
C                     1.98701000          -0.01503000           0.01687000         
O                     1.61304000          -0.74901000          -1.04843000         
O                     0.37454000           2.87444000          -1.16165000         
O                     3.17144000           0.14925000           0.25653000         
H                     1.25490000           3.27731000          -1.15112000         
H                     1.81227000           2.06122000          -3.17817000         
H                     0.47572000           0.95042000          -3.87089000         
H                     1.23873000           0.43355000           0.66276000         
H                     0.67634000          -0.88082000          -1.25000000         
H                    -1.01066000           1.58084000          -2.07716000         
