12

C                     1.34097000          -0.18084000          -2.42907000         
C                     0.11301000           0.23822000          -2.74925000         
C                     2.19472000           0.54033000          -1.46359000         
O                     1.75095000           1.66782000          -0.86105000         
O                     2.48411000           2.31163000          -0.01090000         
O                     3.30926000           0.10726000          -1.21224000         
H                     1.94624000           3.10832000           0.22764000         
H                    -0.78949000           3.13232000          -0.70432000         
H                     1.72412000          -1.08394000          -2.89564000         
H                    -0.89065000           2.68720000          -0.16309000         
H                    -0.48054000          -0.32270000          -3.46386000         
H                    -0.31361000           1.13428000          -2.31044000         
