12

C                     0.29770000           2.08862000          -2.22946000         
C                    -0.60159000           1.10755000          -2.28695000         
C                     2.44025000           0.05744000          -0.29969000         
O                     2.88012000          -0.10097000          -1.56278000         
O                     0.42441000           2.82722000          -1.10919000         
O                     3.23628000           0.07009000           0.62409000         
H                     1.08079000           3.53553000          -1.05885000         
H                     0.93320000           2.29022000          -3.08706000         
H                     2.25863000          -0.11430000          -2.30351000         
H                     1.38013000           0.17440000          -0.09836000         
H                    -0.70004000           0.51092000          -3.18799000         
H                    -1.24077000           0.89318000          -1.43605000         
