12

C                     0.98540000           1.09835000          -3.30538000         
C                    -0.14093000           1.58512000          -2.77741000         
C                     2.16283000           0.07526000           0.46815000         
O                     1.48396000           1.14826000           0.02041000         
O                    -0.15297000           2.75452000          -2.09991000         
O                     3.30652000          -0.12002000           0.09411000         
H                     0.64618000           3.28417000          -1.96413000         
H                     1.92510000           1.63234000          -3.20348000         
H                     0.97021000           0.15686000          -3.84467000         
H                     1.69564000          -0.61666000           1.16182000         
H                    -1.06747000           1.03217000          -2.89188000         
H                     0.57462000           1.30952000           0.30658000         
