12

C                     1.04496000           0.89398000          -3.34848000         
C                     0.24668000           0.69837000          -2.29217000         
C                     2.40832000           0.35363000           0.48568000         
O                     1.96743000           0.59826000          -0.76377000         
O                     0.72579000           0.53741000          -1.03436000         
O                     3.59882000           0.44064000           0.73670000         
H                    -0.31602000           3.69077000          -1.67750000         
H                     2.12444000           0.93287000          -3.24427000         
H                     0.61367000           1.01500000          -4.33683000         
H                     1.71303000           0.07413000           1.27146000         
H                    -0.82710000           0.66420000          -2.44598000         
H                    -0.91091000           3.44063000          -1.38628000         
