12

C                     1.06418000           0.82217000          -2.66872000         
C                     0.34407000           1.20247000          -1.60601000         
C                     2.71070000           0.45582000           0.55594000         
O                     2.16949000           1.40731000          -0.22712000         
O                     0.90946000           1.44883000          -0.40069000         
O                     3.91635000           0.43411000           0.74101000         
H                    -1.22822000           2.92346000          -3.63460000         
H                     2.14193000           0.70393000          -2.60817000         
H                     0.57272000           0.61582000          -3.61256000         
H                     2.08401000          -0.31629000           0.99144000         
H                    -1.56368000           2.34311000          -3.86270000         
H                    -0.73191000           1.29916000          -1.70363000         
