12

C                     0.15758000           1.49877000          -2.54671000         
C                    -0.79217000           0.58140000          -2.37344000         
C                     2.40460000           0.50971000          -0.02456000         
O                     2.87717000           1.56200000          -0.72363000         
O                     0.16892000           2.61357000          -1.78911000         
O                     2.97579000          -0.56775000          -0.06695000         
H                     0.85892000           3.28092000          -1.90650000         
H                     3.66795000           1.48781000          -1.27609000         
H                     0.92595000           1.34633000          -3.29942000         
H                     1.50936000           0.62244000           0.57723000         
H                    -0.80032000          -0.31627000          -2.98306000         
H                    -1.56464000           0.72097000          -1.62355000         
