12

C                     0.69970000           0.70095000          -3.46980000         
C                    -0.47756000           0.59269000          -2.85790000         
C                     2.80468000          -0.09349000           1.11344000         
O                     1.63888000           2.24825000          -0.58964000         
O                     1.18891000           3.42925000          -0.22183000         
O                     3.49686000          -0.58372000           0.36879000         
H                     0.80595000           3.82148000          -1.04764000         
H                     1.38006000           1.50563000          -3.21158000         
H                     0.98721000          -0.01522000          -4.23230000         
H                     0.93813000           1.60952000          -0.30024000         
H                    -1.15653000          -0.21254000          -3.11783000         
H                    -0.76726000           1.30835000          -2.09557000         
