12

C                     0.87590000           1.09211000          -3.17416000         
C                     1.23077000           0.22846000          -2.21423000         
C                     1.77854000           0.56985000          -0.86934000         
O                     1.91148000           1.82742000          -0.37343000         
O                     1.48528000           2.89434000          -0.96597000         
O                     2.12162000          -0.35846000          -0.15455000         
H                     2.30649000           3.37489000          -1.24125000         
H                     0.95384000           2.16397000          -3.08375000         
H                     0.49307000           0.70843000          -4.11452000         
H                    -0.84637000           0.57772000           0.52292000         
H                     1.11739000          -0.82845000          -2.44077000         
H                    -1.03891000           1.08961000           0.07325000         
