51

C                    -3.69169000          -1.00794000          -1.86165000         
C                    -4.27386000           0.25389000          -1.27587000         
C                    -5.42420000           0.27482000          -0.59101000         
H                    -3.75397000           1.19785000          -1.41537000         
H                    -4.87606000          -3.85536000          -2.37263000         
H                    -3.69682000          -0.84162000          -2.95857000         
H                    -4.33587000          -1.85997000          -1.68281000         
H                    -5.99372000          -0.63597000          -0.42038000         
H                    -5.80068000           1.20706000          -0.19168000         
C                    -5.66155000          -3.99832000          -1.59660000         
C                    -5.04971000          -3.97860000          -0.19875000         
Ga                   -1.69855000          -1.37767000          -1.50577000         
H                    -6.14832000          -4.97295000          -1.78266000         
H                    -6.41627000          -3.18580000          -1.69393000         
H                    -4.26953000          -4.76167000          -0.12368000         
H                    -5.84083000          -4.15591000           0.55413000         
H                    -4.57750000          -3.00465000           0.04834000         
O                    -1.46550000           0.22470000          -1.97390000         
O                    -0.47500000          -1.85380000          -0.20970000         
Si                   -1.21050000           0.77100000           1.93840000         
Si                    0.57170000           2.79150000           0.02000000         
Si                   -0.10100000           0.97470000          -2.55070000         
Si                    1.45390000          -0.94150000           2.56990000         
Si                    3.19600000           1.12360000           0.71700000         
Si                    2.60090000          -0.76260000          -1.85930000         
Si                    0.91120000          -2.69170000           0.01740000         
O                    -0.41930000           1.90880000           1.04030000         
O                     0.25860000           2.29690000          -1.54080000         
O                    -2.34190000          -0.01290000           0.87860000         
O                    -0.08870000          -0.26190000           2.58450000         
O                     2.16490000           2.42420000           0.41970000         
O                     1.26690000           0.00510000          -2.51030000         
O                     2.48340000           0.20220000           1.91120000         
O                     3.29020000           0.22850000          -0.69400000         
O                     2.09190000          -2.16570000          -1.08360000         
O                     1.48520000          -2.29100000           1.57560000         
O                    -0.24900000           1.50440000          -4.15050000         
O                     0.24190000           4.41990000           0.27930000         
O                     4.71360000           1.62810000           1.22910000         
O                     3.76490000          -1.07700000          -3.03310000         
O                    -2.28530000           1.39030000           3.07800000         
O                     1.81930000          -1.30340000           4.16860000         
O                     0.72460000          -4.36280000          -0.11980000         
H                     2.59110000          -1.81230000           4.45710000         
H                    -3.30090000           0.20430000           1.03180000         
H                    -2.04800000           1.75290000           3.94430000         
H                     0.79260000           5.14990000          -0.03990000         
H                    -1.04630000           1.93280000          -4.49610000         
H                     3.55770000          -1.23010000          -3.96710000         
H                     1.46710000          -4.98330000          -0.17420000         
H                     5.45440000           1.81490000           0.63320000         
