14

H                     5.13874000           0.87455000          -0.58897000         
C                     5.86257000           0.15519000          -1.01980000         
C                     7.05802000           0.06814000          -0.06753000         
C                     5.18922000          -1.21744000          -1.16542000         
C                     6.28496000           0.69149000          -2.38920000         
H                     7.82353000          -0.63433000          -0.45978000         
H                     7.51906000           1.07116000           0.05869000         
H                     6.72301000          -0.28522000           0.93360000         
H                     4.29688000          -1.13913000          -1.82290000         
H                     5.89489000          -1.95325000          -1.60468000         
H                     4.85791000          -1.59007000          -0.17356000         
H                     6.73916000           1.69971000          -2.28074000         
H                     7.02188000           0.01208000          -2.86767000         
H                     5.39675000           0.78372000          -3.05149000         
