6

C                     3.46857000           3.76761000           1.19798000         
C                     3.20666000           3.18752000           2.36715000         
H                     4.47580000           3.75420000           0.79453000         
H                     2.67560000           4.25380000           0.63937000         
H                     2.19826000           3.19588000           2.76820000         
H                     3.99904000           2.69712000           2.92321000         
