12

C                     5.85609000          -0.04366000          -1.36777000         
C                     6.17865000           0.28403000          -0.10440000         
C                     5.79732000          -1.48527000          -1.79857000         
C                     5.53344000           1.02229000          -2.37655000         
H                     6.21438000           1.32029000           0.21394000         
H                     6.40406000          -0.48185000           0.63191000         
H                     4.77806000          -1.72300000          -2.16913000         
H                     6.52413000          -1.65885000          -2.61767000         
H                     6.03242000          -2.17951000          -0.96230000         
H                     5.60234000           2.04337000          -1.94309000         
H                     6.23845000           0.95351000          -3.23049000         
H                     4.49646000           0.87395000          -2.75021000         
