12
Image 1
C                     3.13081000           0.27848000           0.00002000         
C                    -1.44150000          -1.37856000           0.00001000         
C                    -1.44438000           0.14010000          -0.00000000         
O                     2.27790000          -0.58699000          -0.00001000         
O                    -0.22232000           0.72989000          -0.00002000         
O                    -2.44551000           0.81810000           0.00001000         
H                     0.51154000           0.07743000          -0.00002000         
H                     2.86752000           1.35153000           0.00004000         
H                     4.20467000           0.01987000           0.00002000         
H                    -0.92063000          -1.76424000           0.88474000         
H                    -2.47019000          -1.74169000           0.00003000         
H                    -0.92066000          -1.76425000          -0.88473000         
12
Image 2
C                     3.14137000           0.28095000           0.00002000         
C                    -1.45367000          -1.38004000           0.00001000         
C                    -1.44872000           0.13857000          -0.00000000         
O                     2.28661000          -0.58258000          -0.00001000         
O                    -0.22410000           0.72312000          -0.00002000         
O                    -2.44656000           0.82144000           0.00001000         
H                     0.50858000           0.06957000          -0.00002000         
H                     2.88057000           1.35462000           0.00004000         
H                     4.21473000           0.01999000           0.00002000         
H                    -0.93492000          -1.76846000           0.88479000         
H                    -2.48428000          -1.73769000           0.00003000         
H                    -0.93495000          -1.76847000          -0.88478000         
12
Image 3
C                     3.15271000           0.28264000           0.00002000         
C                    -1.46558000          -1.38162000           0.00001000         
C                    -1.45291000           0.13692000          -0.00000000         
O                     2.29416000          -0.57703000          -0.00001000         
O                    -0.22594000           0.71645000          -0.00002000         
O                    -2.44756000           0.82450000           0.00001000         
H                     0.50581000           0.06210000          -0.00002000         
H                     2.89682000           1.35750000           0.00004000         
H                     4.22495000           0.01687000           0.00002000         
H                    -0.94895000          -1.77275000           0.88485000         
H                    -2.49808000          -1.73382000           0.00003000         
H                    -0.94898000          -1.77277000          -0.88483000         
12
Image 4
C                     3.16416000           0.28368000           0.00002000         
C                    -1.47729000          -1.38346000           0.00001000         
C                    -1.45651000           0.13501000          -0.00000000         
O                     2.29960000          -0.56982000          -0.00001000         
O                    -0.22728000           0.70940000          -0.00002000         
O                    -2.44784000           0.82743000           0.00001000         
H                     0.50374000           0.05450000          -0.00002000         
H                     2.91609000           1.36037000           0.00005000         
H                     4.23451000           0.01018000           0.00002000         
H                    -0.96291000          -1.77745000           0.88490000         
H                    -2.51175000          -1.72986000           0.00003000         
H                    -0.96294000          -1.77747000          -0.88489000         
12
Image 5
C                     3.17492000           0.28407000           0.00002000         
C                    -1.48846000          -1.38562000           0.00001000         
C                    -1.45901000           0.13275000          -0.00000000         
O                     2.30188000          -0.56063000          -0.00001000         
O                    -0.22763000           0.70179000          -0.00002000         
O                    -2.44684000           0.83026000           0.00001000         
H                     0.50287000           0.04659000          -0.00002000         
H                     2.93787000           1.36324000           0.00005000         
H                     4.24243000          -0.00042000           0.00001000         
H                    -0.97652000          -1.78269000           0.88495000         
H                    -2.52499000          -1.72579000           0.00003000         
H                    -0.97655000          -1.78271000          -0.88494000         
12
Image 6
C                     3.18414000           0.28385000           0.00002000         
C                    -1.49845000          -1.38803000           0.00001000         
C                    -1.46025000           0.13024000          -0.00000000         
O                     2.30067000          -0.54978000          -0.00001000         
O                    -0.22683000           0.69368000          -0.00002000         
O                    -2.44442000           0.83306000           0.00001000         
H                     0.50329000           0.03834000          -0.00002000         
H                     2.96088000           1.36593000           0.00006000         
H                     4.24793000          -0.01437000           0.00001000         
H                    -0.98894000          -1.78813000           0.88500000         
H                    -2.53700000          -1.72202000           0.00003000         
H                    -0.98897000          -1.78814000          -0.88499000         
12
Image 7
C                     3.19148000           0.28315000           0.00002000         
C                    -1.50614000          -1.39013000           0.00001000         
C                    -1.46092000           0.12787000          -0.00000000         
O                     2.29656000          -0.53800000          -0.00001000         
O                    -0.22511000           0.68442000          -0.00002000         
O                    -2.44121000           0.83631000           0.00001000         
H                     0.50405000           0.02837000          -0.00002000         
H                     2.98362000           1.36827000           0.00006000         
H                     4.25088000          -0.03040000           0.00000000         
H                    -0.99814000          -1.79215000           0.88501000         
H                    -2.54593000          -1.72027000           0.00003000         
H                    -0.99817000          -1.79216000          -0.88500000         
12
Image 8
C                     3.19252000           0.28605000           0.00002000         
C                    -1.50864000          -1.39041000           0.00001000         
C                    -1.46179000           0.12757000          -0.00000000         
O                     2.29529000          -0.53247000          -0.00001000         
O                    -0.22285000           0.67757000          -0.00002000         
O                    -2.44060000           0.83843000           0.00001000         
H                     0.50339000           0.01825000          -0.00002000         
H                     3.00519000           1.37490000           0.00007000         
H                     4.23905000          -0.06643000          -0.00000000         
H                    -1.00039000          -1.79218000           0.88501000         
H                    -2.54821000          -1.72123000           0.00003000         
H                    -1.00043000          -1.79219000          -0.88500000         
12
Image 9
C                     3.19124000           0.29433000           0.00002000         
C                    -1.50883000          -1.39046000           0.00001000         
C                    -1.46213000           0.12772000          -0.00000000         
O                     2.29829000          -0.53403000          -0.00001000         
O                    -0.22219000           0.67654000          -0.00002000         
O                    -2.44082000           0.83876000           0.00001000         
H                     0.50248000           0.01455000          -0.00002000         
H                     3.00546000           1.38322000           0.00007000         
H                     4.20701000          -0.13494000          -0.00001000         
H                    -1.00054000          -1.79207000           0.88504000         
H                    -2.54834000          -1.72151000           0.00003000         
H                    -1.00057000          -1.79209000          -0.88503000         
12
Image 10
C                     3.19223000           0.30292000           0.00002000         
C                    -1.50888000          -1.39049000           0.00001000         
C                    -1.46236000           0.12777000          -0.00000000         
O                     2.30059000          -0.53635000          -0.00001000         
O                    -0.22190000           0.67624000          -0.00002000         
O                    -2.44091000           0.83888000           0.00001000         
H                     0.50159000           0.01185000          -0.00002000         
H                     2.99428000           1.38970000           0.00007000         
H                     4.17125000          -0.20141000          -0.00001000         
H                    -1.00062000          -1.79204000           0.88508000         
H                    -2.54838000          -1.72161000           0.00003000         
H                    -1.00065000          -1.79205000          -0.88507000         
12
Image 11
C                     3.19447000           0.31149000           0.00002000         
C                    -1.50890000          -1.39052000           0.00001000         
C                    -1.46257000           0.12777000          -0.00000000         
O                     2.30246000          -0.53893000          -0.00001000         
O                    -0.22172000           0.67614000          -0.00002000         
O                    -2.44094000           0.83895000           0.00001000         
H                     0.50065000           0.00939000          -0.00002000         
H                     2.97902000           1.39525000           0.00007000         
H                     4.13173000          -0.26476000          -0.00001000         
H                    -1.00071000          -1.79202000           0.88512000         
H                    -2.54839000          -1.72167000           0.00003000         
H                    -1.00074000          -1.79203000          -0.88511000         
12
Image 12
C                     3.19741000           0.31991000           0.00002000         
C                    -1.50891000          -1.39054000           0.00001000         
C                    -1.46278000           0.12776000          -0.00000000         
O                     2.30416000          -0.54162000          -0.00001000         
O                    -0.22160000           0.67613000          -0.00002000         
O                    -2.44095000           0.83899000           0.00001000         
H                     0.49963000           0.00707000          -0.00002000         
H                     2.96202000           1.40010000           0.00007000         
H                     4.08841000          -0.32509000          -0.00002000         
H                    -1.00080000          -1.79201000           0.88517000         
H                    -2.54840000          -1.72171000           0.00003000         
H                    -1.00083000          -1.79202000          -0.88516000         
12
Image 13
C                     3.20074000           0.32812000           0.00002000         
C                    -1.50890000          -1.39056000           0.00001000         
C                    -1.46297000           0.12773000          -0.00000000         
O                     2.30585000          -0.54431000          -0.00001000         
O                    -0.22150000           0.67617000          -0.00002000         
O                    -2.44092000           0.83902000           0.00001000         
H                     0.49850000           0.00487000          -0.00002000         
H                     2.94434000           1.40431000           0.00007000         
H                     4.04145000          -0.38261000          -0.00002000         
H                    -1.00089000          -1.79201000           0.88522000         
H                    -2.54839000          -1.72174000           0.00003000         
H                    -1.00092000          -1.79202000          -0.88521000         
12
Image 14
C                     3.20425000           0.33606000           0.00002000         
C                    -1.50890000          -1.39057000           0.00001000         
C                    -1.46317000           0.12770000          -0.00000000         
O                     2.30763000          -0.54695000          -0.00001000         
O                    -0.22142000           0.67624000          -0.00002000         
O                    -2.44089000           0.83903000           0.00001000         
H                     0.49723000           0.00281000          -0.00003000         
H                     2.92656000           1.40794000           0.00007000         
H                     3.99114000          -0.43757000          -0.00002000         
H                    -1.00099000          -1.79202000           0.88528000         
H                    -2.54838000          -1.72176000           0.00003000         
H                    -1.00102000          -1.79203000          -0.88527000         
12
Image 15
C                     3.20776000           0.34373000           0.00002000         
C                    -1.50889000          -1.39058000           0.00001000         
C                    -1.46337000           0.12766000          -0.00000000         
O                     2.30958000          -0.54951000          -0.00001000         
O                    -0.22135000           0.67632000          -0.00002000         
O                    -2.44084000           0.83904000           0.00001000         
H                     0.49578000           0.00092000          -0.00003000         
H                     2.90901000           1.41101000           0.00007000         
H                     3.93791000          -0.49027000          -0.00002000         
H                    -1.00108000          -1.79203000           0.88534000         
H                    -2.54836000          -1.72178000           0.00003000         
H                    -1.00112000          -1.79204000          -0.88533000         
12
Image 16
C                     3.21118000           0.35112000           0.00002000         
C                    -1.50887000          -1.39058000           0.00001000         
C                    -1.46356000           0.12761000          -0.00000000         
O                     2.31173000          -0.55195000          -0.00001000         
O                    -0.22128000           0.67641000          -0.00002000         
O                    -2.44079000           0.83904000           0.00001000         
H                     0.49414000          -0.00077000          -0.00003000         
H                     2.89193000           1.41355000           0.00007000         
H                     3.88220000          -0.54107000          -0.00003000         
H                    -1.00118000          -1.79204000           0.88540000         
H                    -2.54834000          -1.72179000           0.00003000         
H                    -1.00121000          -1.79205000          -0.88539000         
12
Image 17
C                     3.21440000           0.35825000           0.00002000         
C                    -1.50886000          -1.39059000           0.00001000         
C                    -1.46375000           0.12756000          -0.00000000         
O                     2.31411000          -0.55427000          -0.00001000         
O                    -0.22121000           0.67650000          -0.00002000         
O                    -2.44073000           0.83903000           0.00001000         
H                     0.49231000          -0.00224000          -0.00003000         
H                     2.87546000           1.41556000           0.00007000         
H                     3.82449000          -0.59037000          -0.00003000         
H                    -1.00128000          -1.79205000           0.88547000         
H                    -2.54831000          -1.72180000           0.00003000         
H                    -1.00131000          -1.79207000          -0.88546000         
12
Image 18
C                     3.21738000           0.36513000           0.00002000         
C                    -1.50885000          -1.39059000           0.00001000         
C                    -1.46393000           0.12752000          -0.00000000         
O                     2.31673000          -0.55646000          -0.00001000         
O                    -0.22113000           0.67659000          -0.00002000         
O                    -2.44067000           0.83902000           0.00001000         
H                     0.49032000          -0.00349000          -0.00003000         
H                     2.85968000           1.41706000           0.00007000         
H                     3.76522000          -0.63854000          -0.00003000         
H                    -1.00137000          -1.79207000           0.88554000         
H                    -2.54828000          -1.72182000           0.00003000         
H                    -1.00140000          -1.79209000          -0.88553000         
12
Image 19
C                     3.22010000           0.37181000           0.00002000         
C                    -1.50883000          -1.39059000           0.00001000         
C                    -1.46411000           0.12747000          -0.00000000         
O                     2.31958000          -0.55851000          -0.00001000         
O                    -0.22105000           0.67667000          -0.00002000         
O                    -2.44061000           0.83902000           0.00001000         
H                     0.48819000          -0.00454000          -0.00003000         
H                     2.84460000           1.41804000           0.00007000         
H                     3.70474000          -0.68587000          -0.00003000         
H                    -1.00147000          -1.79209000           0.88562000         
H                    -2.54824000          -1.72183000           0.00003000         
H                    -1.00150000          -1.79210000          -0.88560000         
12
Image 20
C                     3.22255000           0.37829000           0.00002000         
C                    -1.50882000          -1.39059000           0.00001000         
C                    -1.46428000           0.12742000          -0.00000000         
O                     2.32264000          -0.56043000          -0.00001000         
O                    -0.22097000           0.67674000          -0.00002000         
O                    -2.44055000           0.83901000           0.00001000         
H                     0.48596000          -0.00540000          -0.00003000         
H                     2.83021000           1.41852000           0.00007000         
H                     3.64333000          -0.73258000          -0.00003000         
H                    -1.00156000          -1.79211000           0.88569000         
H                    -2.54821000          -1.72184000           0.00003000         
H                    -1.00159000          -1.79213000          -0.88568000         
12
Image 21
C                     3.22475000           0.38461000           0.00002000         
C                    -1.50881000          -1.39059000           0.00001000         
C                    -1.46445000           0.12738000          -0.00000000         
O                     2.32590000          -0.56222000          -0.00001000         
O                    -0.22089000           0.67681000          -0.00002000         
O                    -2.44048000           0.83900000           0.00001000         
H                     0.48369000          -0.00612000          -0.00003000         
H                     2.81639000           1.41852000           0.00007000         
H                     3.58123000          -0.77884000          -0.00004000         
H                    -1.00165000          -1.79213000           0.88577000         
H                    -2.54817000          -1.72185000           0.00003000         
H                    -1.00168000          -1.79215000          -0.88576000         
12
Image 22
C                     3.22672000           0.39076000           0.00002000         
C                    -1.50879000          -1.39059000           0.00001000         
C                    -1.46461000           0.12733000          -0.00000000         
O                     2.32933000          -0.56389000          -0.00001000         
O                    -0.22082000           0.67687000          -0.00002000         
O                    -2.44043000           0.83898000           0.00001000         
H                     0.48141000          -0.00672000          -0.00003000         
H                     2.80301000           1.41809000           0.00007000         
H                     3.51866000          -0.82484000          -0.00004000         
H                    -1.00174000          -1.79216000           0.88585000         
H                    -2.54813000          -1.72187000           0.00003000         
H                    -1.00178000          -1.79217000          -0.88583000         
12
Image 23
C                     3.22848000           0.39678000           0.00002000         
C                    -1.50878000          -1.39059000           0.00001000         
C                    -1.46476000           0.12730000          -0.00000000         
O                     2.33292000          -0.56541000          -0.00001000         
O                    -0.22074000           0.67692000          -0.00002000         
O                    -2.44037000           0.83897000           0.00001000         
H                     0.47918000          -0.00727000          -0.00003000         
H                     2.78981000           1.41725000           0.00007000         
H                     3.45603000          -0.87109000          -0.00004000         
H                    -1.00183000          -1.79218000           0.88593000         
H                    -2.54809000          -1.72189000           0.00003000         
H                    -1.00187000          -1.79219000          -0.88591000         
12
Image 24
C                     3.23014000           0.40273000           0.00002000         
C                    -1.50877000          -1.39059000           0.00001000         
C                    -1.46492000           0.12727000          -0.00000000         
O                     2.33657000          -0.56684000          -0.00001000         
O                    -0.22068000           0.67697000          -0.00002000         
O                    -2.44032000           0.83896000           0.00001000         
H                     0.47699000          -0.00780000          -0.00003000         
H                     2.77657000           1.41613000           0.00007000         
H                     3.39373000          -0.91787000          -0.00004000         
H                    -1.00193000          -1.79220000           0.88601000         
H                    -2.54805000          -1.72191000           0.00003000         
H                    -1.00196000          -1.79221000          -0.88600000         
12
Image 25
C                     3.23164000           0.40857000           0.00002000         
C                    -1.50876000          -1.39059000           0.00001000         
C                    -1.46506000           0.12724000          -0.00000000         
O                     2.34028000          -0.56804000          -0.00001000         
O                    -0.22062000           0.67702000          -0.00002000         
O                    -2.44027000           0.83895000           0.00001000         
H                     0.47491000          -0.00837000          -0.00003000         
H                     2.76289000           1.41455000           0.00007000         
H                     3.33277000          -0.96644000          -0.00004000         
H                    -1.00203000          -1.79222000           0.88609000         
H                    -2.54801000          -1.72194000           0.00003000         
H                    -1.00206000          -1.79223000          -0.88608000         
12
Image 26
C                     3.23303000           0.41431000           0.00003000         
C                    -1.50874000          -1.39060000           0.00001000         
C                    -1.46520000           0.12722000          -0.00000000         
O                     2.34399000          -0.56894000          -0.00001000         
O                    -0.22058000           0.67707000          -0.00002000         
O                    -2.44022000           0.83894000           0.00001000         
H                     0.47299000          -0.00904000          -0.00003000         
H                     2.74831000           1.41238000           0.00007000         
H                     3.27422000          -1.01788000          -0.00004000         
H                    -1.00214000          -1.79223000           0.88619000         
H                    -2.54798000          -1.72197000           0.00003000         
H                    -1.00217000          -1.79225000          -0.88617000         
12
Image 27
C                     3.23432000           0.41988000           0.00003000         
C                    -1.50873000          -1.39060000           0.00001000         
C                    -1.46534000           0.12722000          -0.00000000         
O                     2.34767000          -0.56945000          -0.00001000         
O                    -0.22056000           0.67711000          -0.00002000         
O                    -2.44019000           0.83893000           0.00001000         
H                     0.47130000          -0.00984000          -0.00003000         
H                     2.73243000           1.40933000           0.00007000         
H                     3.21884000          -1.07270000          -0.00005000         
H                    -1.00226000          -1.79225000           0.88628000         
H                    -2.54795000          -1.72202000           0.00003000         
H                    -1.00229000          -1.79226000          -0.88627000         
12
Image 28
C                     3.23554000           0.42513000           0.00003000         
C                    -1.50872000          -1.39061000           0.00001000         
C                    -1.46547000           0.12723000          -0.00000000         
O                     2.35134000          -0.56947000          -0.00001000         
O                    -0.22056000           0.67714000          -0.00002000         
O                    -2.44017000           0.83893000           0.00001000         
H                     0.46992000          -0.01076000          -0.00003000         
H                     2.71491000           1.40504000           0.00007000         
H                     3.16623000          -1.13005000          -0.00005000         
H                    -1.00240000          -1.79225000           0.88639000         
H                    -2.54792000          -1.72208000           0.00003000         
H                    -1.00243000          -1.79226000          -0.88638000         
12
Image 29
C                     3.23670000           0.42996000           0.00003000         
C                    -1.50872000          -1.39063000           0.00001000         
C                    -1.46558000           0.12727000          -0.00000000         
O                     2.35513000          -0.56902000          -0.00001000         
O                    -0.22059000           0.67715000          -0.00002000         
O                    -2.44017000           0.83893000           0.00001000         
H                     0.46892000          -0.01169000          -0.00003000         
H                     2.69546000           1.39901000           0.00007000         
H                     3.11475000          -1.18796000          -0.00005000         
H                    -1.00255000          -1.79225000           0.88651000         
H                    -2.54789000          -1.72216000           0.00003000         
H                    -1.00258000          -1.79226000          -0.88650000         
12
Image 30
C                     3.23783000           0.43426000           0.00003000         
C                    -1.50872000          -1.39065000           0.00001000         
C                    -1.46566000           0.12733000          -0.00000000         
O                     2.35915000          -0.56812000          -0.00001000         
O                    -0.22064000           0.67712000          -0.00002000         
O                    -2.44020000           0.83893000           0.00001000         
H                     0.46835000          -0.01252000          -0.00003000         
H                     2.67370000           1.39068000           0.00007000         
H                     3.06256000          -1.24427000          -0.00005000         
H                    -1.00273000          -1.79223000           0.88664000         
H                    -2.54787000          -1.72226000           0.00003000         
H                    -1.00276000          -1.79224000          -0.88663000         
12
Image 31
C                     3.23900000           0.43795000           0.00003000         
C                    -1.50873000          -1.39067000           0.00001000         
C                    -1.46573000           0.12743000          -0.00000000         
O                     2.36346000          -0.56677000          -0.00001000         
O                    -0.22072000           0.67702000          -0.00002000         
O                    -2.44026000           0.83894000           0.00001000         
H                     0.46832000          -0.01303000          -0.00003000         
H                     2.64916000           1.37934000           0.00007000         
H                     3.00853000          -1.29706000          -0.00005000         
H                    -1.00294000          -1.79220000           0.88680000         
H                    -2.54785000          -1.72240000           0.00003000         
H                    -1.00297000          -1.79221000          -0.88679000         
12
Image 32
C                     3.24029000           0.44092000           0.00003000         
C                    -1.50877000          -1.39070000           0.00001000         
C                    -1.46577000           0.12757000          -0.00000000         
O                     2.36806000          -0.56494000          -0.00001000         
O                    -0.22084000           0.67682000          -0.00002000         
O                    -2.44039000           0.83895000           0.00001000         
H                     0.46902000          -0.01297000          -0.00003000         
H                     2.62136000           1.36413000           0.00007000         
H                     2.95249000          -1.34474000          -0.00005000         
H                    -1.00322000          -1.79215000           0.88700000         
H                    -2.54785000          -1.72260000           0.00003000         
H                    -1.00325000          -1.79216000          -0.88698000         
12
Image 33
C                     3.24194000           0.44296000           0.00003000         
C                    -1.50890000          -1.39074000           0.00001000         
C                    -1.46581000           0.12775000          -0.00000000         
O                     2.37289000          -0.56242000          -0.00001000         
O                    -0.22101000           0.67644000          -0.00002000         
O                    -2.44063000           0.83898000           0.00001000         
H                     0.47085000          -0.01186000          -0.00003000         
H                     2.59010000           1.34403000           0.00007000         
H                     2.89512000          -1.38589000          -0.00005000         
H                    -1.00362000          -1.79207000           0.88724000         
H                    -2.54791000          -1.72288000           0.00003000         
H                    -1.00366000          -1.79208000          -0.88723000         
12
Image 34
C                     3.24740000           0.44200000           0.00003000         
C                    -1.51032000          -1.39102000           0.00001000         
C                    -1.46658000           0.12746000          -0.00000000         
O                     2.37548000          -0.55805000          -0.00001000         
O                    -0.22182000           0.67548000          -0.00002000         
O                    -2.44149000           0.83882000           0.00001000         
H                     0.47299000          -0.01012000          -0.00003000         
H                     2.57793000           1.33061000           0.00007000         
H                     2.85659000          -1.40671000          -0.00005000         
H                    -1.00534000          -1.79237000           0.88742000         
H                    -2.54935000          -1.72313000           0.00003000         
H                    -1.00538000          -1.79238000          -0.88741000         
12
Image 35
C                     3.26396000           0.43548000           0.00003000         
C                    -1.51468000          -1.39219000           0.00001000         
C                    -1.46981000           0.12629000          -0.00000000         
O                     2.37544000          -0.54985000          -0.00002000         
O                    -0.22544000           0.67477000          -0.00002000         
O                    -2.44471000           0.83777000           0.00001000         
H                     0.47161000          -0.00857000          -0.00003000         
H                     2.60921000           1.33504000           0.00006000         
H                     2.84281000          -1.40617000          -0.00005000         
H                    -1.01015000          -1.79403000           0.88746000         
H                    -2.55404000          -1.72327000           0.00003000         
H                    -1.01019000          -1.79405000          -0.88745000         
12
Image 36
C                     3.28065000           0.42826000           0.00003000         
C                    -1.51743000          -1.39282000           0.00001000         
C                    -1.47381000           0.12571000          -0.00000000         
O                     2.37739000          -0.54355000          -0.00002000         
O                    -0.23045000           0.67638000          -0.00002000         
O                    -2.44971000           0.83589000           0.00001000         
H                     0.46930000          -0.00420000          -0.00003000         
H                     2.63936000           1.33752000           0.00006000         
H                     2.83234000          -1.40654000          -0.00005000         
H                    -1.01272000          -1.79435000           0.88749000         
H                    -2.55661000          -1.72451000           0.00003000         
H                    -1.01275000          -1.79437000          -0.88748000         
