12
Number of gradient calls is 27
C                    -0.42149100          -0.97489300          -0.11468400         
C                     0.39981700          -0.10530400           0.77471600         
C                     1.74020700           0.26404000           0.37229600         
O                    -1.77275300          -0.64532600          -0.11486000         
O                    -1.70423200           1.17285300          -0.09249000         
O                     2.22650900           0.10187500          -0.74964700         
H                    -1.65699800           1.26049100          -1.06299300         
H                    -0.51086600          -1.98778100           0.34396300         
H                     0.00828700          -1.05460300          -1.12049400         
H                     2.33321700           0.78771700           1.15238700         
H                    -0.68020900           0.99203500           0.30261300         
H                     0.19918400          -0.13612900           1.84652600         
