12
Number of gradient calls is 37
C                    -2.11862300          -0.91219700           0.03535400         
C                     1.14111000           0.92743200           0.47133000         
C                     1.80751100          -0.33792900           0.42042200         
O                    -2.28617800           0.27633800           0.25194100         
O                     0.08050700           1.07273100          -0.72529800         
O                     1.69463000          -1.21614100          -0.43450200         
H                    -0.82851700           1.16614400          -0.33348900         
H                    -1.18443500          -1.29203400          -0.41382300         
H                    -2.90564600          -1.64283400           0.28988400         
H                     2.51772800          -0.46190800           1.27054400         
H                     0.66891700           1.24042000           1.40084600         
H                     0.84029900           1.86295300          -0.51371500         
