12
Number of gradient calls is 19
C                    -1.92806700          -0.84449000           0.38035600         
C                    -0.19456700          -0.28669800          -0.65760300         
C                     0.83743800          -1.07449500           0.00717200         
O                    -0.22390900           0.96762600          -0.82435200         
O                    -0.00473800           1.78867900           0.59648400         
O                     1.95914400          -0.63702900           0.21454300         
H                     0.96995400           1.84327000           0.54875800         
H                    -2.85877700          -0.60387900          -0.13831200         
H                    -1.87551500          -1.87129100           0.73784100         
H                     0.56459500          -2.12253500           0.23930000         
H                    -1.67593100          -0.09718300           1.12798500         
H                    -1.25712600          -0.86850000          -0.78852300         
