12

C                     1.53627000           1.62834000          -1.12263000         
C                     0.74280000           2.54062000          -1.68628000         
C                     2.06365000          -0.66179000          -0.80040000         
O                     1.38378000           0.32270000          -1.43139000         
O                     0.88129000           3.84402000          -1.37474000         
O                     1.92010000          -1.81718000          -1.15388000         
H                     0.29677000           4.50795000          -1.76582000         
H                     2.29741000           1.94476000          -0.41177000         
H                    -0.55544000          -0.29554000          -3.26769000         
H                     2.72412000          -0.43626000           0.03322000         
H                    -0.02432000           2.23328000          -2.39263000         
H                    -0.87720000          -0.47089000          -2.66179000         
