12

C                     1.73940000           0.65698000          -2.43634000         
C                    -0.45573000           2.88615000          -1.02276000         
C                     1.86604000          -1.27457000          -1.04046000         
O                     2.16490000          -0.62786000          -2.18875000         
O                     0.27153000           3.86628000          -1.06388000         
O                     2.24985000          -2.42035000          -0.87393000         
H                     0.27573000           4.45000000          -1.83555000         
H                     2.13944000           1.34912000          -1.66409000         
H                     2.10663000           0.97998000          -3.43171000         
H                     1.28707000          -0.78712000          -0.26055000         
H                     0.62949000           0.69392000          -2.43751000         
H                    -0.44312000           2.24121000          -0.15106000         
