12

C                     1.34845000           1.18514000          -2.64098000         
C                     0.40020000           1.87089000          -1.98208000         
C                     1.27301000          -0.87687000          -1.34133000         
O                     1.70577000          -0.09976000          -2.36575000         
O                     0.12859000           3.14195000          -2.33918000         
O                     1.65231000          -2.03268000          -1.26649000         
H                    -0.54973000           3.65029000          -1.87342000         
H                     2.35291000           1.95707000           0.28877000         
H                     1.86678000           1.68235000          -3.45539000         
H                     0.61011000          -0.50043000          -0.57220000         
H                    -0.16163000           1.43344000          -1.16611000         
H                     1.76242000           1.92861000           0.67836000         
