12

C                     1.35830000           1.35816000          -2.45240000         
C                     0.05493000           1.21898000          -1.64332000         
C                     1.25739000          -0.61075000          -1.48690000         
O                     1.95641000           0.12456000          -2.35750000         
O                     0.16742000           0.00232000          -1.01431000         
O                     1.58323000          -1.73886000          -1.15560000         
H                     1.80138000           3.32801000           0.25143000         
H                     2.04272000           2.09630000          -1.98190000         
H                     1.15219000           1.64565000          -3.50522000         
H                     1.91057000           2.69623000           0.55206000         
H                    -0.82568000           1.16466000          -2.31907000         
H                    -0.06965000           2.05473000          -0.92307000         
