12

C                     1.73296000           1.38853000          -1.56132000         
C                     0.72686000           1.88562000          -0.81645000         
C                     1.65182000          -0.92318000          -0.78501000         
O                     2.12895000           0.08541000          -1.55631000         
O                     0.39506000           3.19424000          -0.88462000         
O                     2.09666000          -2.04867000          -0.93159000         
H                     0.85772000           3.82064000          -1.46002000         
H                     2.26937000           2.06430000          -2.22040000         
H                    -0.00380000           1.87394000          -3.98491000         
H                     0.89109000          -0.76419000          -0.03136000         
H                    -0.50963000           1.50263000          -3.65695000         
H                     0.15214000           1.26073000          -0.14686000         
