12

C                     1.56523000           1.79204000          -2.42066000         
C                     0.60286000           1.54274000          -1.25410000         
C                     1.25406000          -0.72886000          -0.77075000         
O                     0.32876000           0.19494000          -1.12325000         
O                    -0.60232000           2.21786000          -1.49443000         
O                     0.94317000          -1.90642000          -0.71789000         
H                    -0.44133000           3.17646000          -1.29070000         
H                     2.53214000           1.27396000          -2.25228000         
H                     1.76683000           2.87976000          -2.51848000         
H                     2.27047000          -0.43491000          -0.52468000         
H                     1.11853000           1.42301000          -3.36855000         
H                     1.05078000           1.90944000          -0.30003000         
