12

C                     1.34910000           0.87982000          -1.90211000         
C                     0.38324000           1.84208000          -1.19629000         
C                     1.25545000          -0.49997000          -1.30896000         
O                     2.67099000           1.35075000          -1.82655000         
O                     0.47244000           3.12499000          -1.75531000         
O                     0.90639000          -1.44737000          -1.99455000         
H                    -0.09537000           3.12244000          -2.56969000         
H                     2.91505000           1.41855000          -0.86572000         
H                     1.06355000           0.83027000          -2.97614000         
H                     1.49930000          -0.65845000          -0.26298000         
H                    -0.66369000           1.46454000          -1.26179000         
H                     0.63274000           1.91235000          -0.11570000         
