12

C                     1.67346000           1.19808000          -1.84369000         
C                     0.40797000           1.87398000          -1.30126000         
C                     1.73235000          -0.30080000          -1.63915000         
O                     0.94487000          -0.95866000          -0.75872000         
O                     0.51632000           3.26715000          -1.42980000         
O                     2.57997000          -0.93722000          -2.24681000         
H                     0.11531000           3.51956000          -2.30092000         
H                     2.57932000           1.63596000          -1.37336000         
H                     1.71315000           1.41339000          -2.93416000         
H                     0.35664000          -0.51994000          -0.13101000         
H                    -0.48745000           1.49244000          -1.84992000         
H                     0.25731000           1.65606000          -0.22699000         
