12

C                     1.74729000           1.96505000          -1.75938000         
C                     0.52802000           2.01544000          -0.86412000         
C                     1.01772000          -0.30806000          -2.00160000         
O                     2.06612000           0.64339000          -2.17151000         
O                     0.64272000           0.86783000          -0.07235000         
O                     0.22020000          -0.15079000          -0.82139000         
H                     0.35304000          -0.26121000          -2.89010000         
H                     2.60912000           2.30308000          -1.14448000         
H                     1.64056000           2.65460000          -2.62313000         
H                     1.47884000          -1.31643000          -1.96771000         
H                    -0.41305000           1.98306000          -1.46411000         
H                     0.49861000           2.94404000          -0.25591000         
