12

C                     0.82615000           0.76407000          -2.39331000         
C                    -0.11863000           1.18481000          -1.53941000         
C                     1.76995000          -1.02267000          -1.03097000         
O                     1.67150000          -0.27810000          -2.15996000         
O                     1.49512000           4.06835000          -1.04054000         
O                     2.55618000          -1.95433000          -0.99611000         
H                     1.02110000           4.06387000          -1.91001000         
H                     2.10708000           3.29120000          -1.08747000         
H                     0.92295000           1.28687000          -3.33949000         
H                     1.17890000          -0.81336000          -0.14827000         
H                    -0.74785000           2.02547000          -1.81370000         
H                    -0.29326000           0.72382000          -0.57656000         
