12

C                     0.98986000           1.50320000          -2.72874000         
C                     0.07604000           1.95431000          -1.63113000         
C                     2.30529000          -0.71098000          -0.32352000         
O                     0.93780000           0.35300000          -3.13388000         
O                     0.31682000           3.29803000          -1.31539000         
O                     2.28245000          -1.71654000          -1.01288000         
H                    -0.11321000           3.83876000          -2.02868000         
H                     2.92523000           0.13071000          -0.61244000         
H                     1.70175000           2.19278000          -3.17108000         
H                     1.69779000          -0.65372000           0.57276000         
H                    -0.98751000           1.80968000          -1.92653000         
H                     0.25688000           1.34077000          -0.72429000         
