12

C                     1.71974000           1.39743000          -1.77342000         
C                     0.73338000           1.92502000          -0.77213000         
C                     1.72552000          -0.89488000          -1.04045000         
O                     1.53819000           0.04667000          -1.99514000         
O                     0.74545000           3.10682000          -0.46862000         
O                     1.54347000          -2.07090000          -1.30628000         
H                    -0.81980000           3.13421000          -3.13880000         
H                     2.75719000           1.58434000          -1.41997000         
H                     1.57191000           1.93627000          -2.73271000         
H                     2.03861000          -0.61656000          -0.03796000         
H                    -1.16638000           2.52551000          -3.03557000         
H                     0.00192000           1.26608000          -0.31475000         
