12

C                     0.85737000           1.84746000          -3.28646000         
C                    -0.26352000           1.49320000          -2.66168000         
C                     1.79359000          -0.30188000          -0.17235000         
O                     2.26107000           0.95708000          -0.28782000         
O                     1.92748000           1.86649000           0.56986000         
O                     2.09990000          -1.14123000          -1.00306000         
H                     1.38342000           2.51297000           0.05185000         
H                     1.75696000           2.06403000          -2.72018000         
H                     0.87931000           1.92266000          -4.36845000         
H                     1.14400000          -0.57564000           0.65314000         
H                    -1.16150000           1.27770000          -3.23079000         
H                    -0.28889000           1.41718000          -1.57987000         
