12

C                     1.91098000           1.94239000          -1.63988000         
C                     0.53387000           2.03955000          -1.07412000         
C                     1.05947000          -0.07725000          -1.39418000         
O                     1.94491000           0.67317000          -2.20692000         
O                     0.30670000           0.77273000          -0.54789000         
O                     0.19744000          -0.83692000          -2.19775000         
H                    -0.25384000          -0.20238000          -2.81358000         
H                     2.67172000           1.98278000          -0.82742000         
H                     2.10119000           2.74725000          -2.38103000         
H                     1.66268000          -0.76286000          -0.76121000         
H                    -0.21073000           2.21995000          -1.88258000         
H                     0.46482000           2.84160000          -0.30925000         
