12

C                     1.89113000           2.21748000          -1.83534000         
C                     0.87698000           2.51356000          -1.01785000         
C                     1.17336000          -1.17274000          -1.20292000         
O                     0.33410000          -0.83295000          -2.20041000         
O                    -0.10978000           3.35545000          -1.39656000         
O                     1.85993000          -2.17519000          -1.30097000         
H                    -0.12582000           3.77763000          -2.26770000         
H                     2.67088000           1.53674000          -1.50931000         
H                     1.94928000           2.64716000          -2.83032000         
H                     1.24339000          -0.55648000          -0.31198000         
H                    -0.21476000          -0.03973000          -2.13389000         
H                     0.84051000           2.06907000          -0.02854000         
