14

H                    -5.20107000           1.04313000          -1.06728000         
C                    -5.81670000           0.18418000          -0.72635000         
C                    -5.07491000          -1.11526000          -1.08382000         
C                    -6.06010000           0.34837000           0.77445000         
C                    -5.88642000          -2.37266000          -0.78465000         
H                    -6.78437000           0.22802000          -1.27013000         
H                    -4.85444000          -1.09905000          -2.17291000         
H                    -4.10947000          -1.17071000          -0.53930000         
H                    -6.55171000           1.32639000           0.96190000         
H                    -5.09594000           0.32778000           1.32771000         
H                    -6.72374000          -0.44926000           1.16450000         
H                    -5.30836000          -3.26463000          -1.10415000         
H                    -6.09328000          -2.46791000           0.30095000         
H                    -6.84454000          -2.35104000          -1.34498000         
