12

C                     0.80173000           1.35881000          -2.33860000         
C                    -0.56139000           2.04601000          -2.39346000         
C                     3.69720000          -0.17629000           0.59841000         
O                     1.37009000           1.44624000          -1.05352000         
O                     0.62292000           0.70440000          -0.25361000         
O                     4.11315000          -0.66726000          -0.32913000         
H                    -0.46195000           3.11075000          -2.09505000         
H                     0.72647000           0.29668000          -2.66391000         
H                     1.48186000           1.86922000          -3.05342000         
H                     1.07417000          -0.17712000          -0.21292000         
H                    -0.96537000           1.99262000          -3.42570000         
H                    -1.27729000           1.54213000          -1.70999000         
