12

C                     1.22308000           1.66219000          -1.80357000         
C                    -0.27119000           1.78287000          -2.11010000         
C                     2.13679000           0.21085000          -0.00617000         
O                     1.85771000           0.81796000          -2.73391000         
O                     1.40106000           1.24934000          -0.48731000         
O                     2.84614000          -0.47341000          -0.72735000         
H                    -0.74520000           2.49878000          -1.40528000         
H                     1.35378000          -0.03779000          -2.75905000         
H                     1.66281000           2.67664000          -1.90815000         
H                     2.11206000           0.00155000           1.05730000         
H                    -0.41670000           2.15447000          -3.14667000         
H                    -0.77103000           0.79635000          -2.00535000         
