12

C                     1.03237000           0.90596000          -2.53850000         
C                    -0.23829000           1.68320000          -2.20078000         
C                     1.95089000           0.74818000          -1.35619000         
O                     2.40751000           1.14413000           0.87513000         
O                     1.62519000           1.26882000          -0.14885000         
O                     3.00284000           0.14213000          -1.49805000         
H                     0.01614000           2.70529000          -1.84727000         
H                     0.74714000          -0.10192000          -2.90957000         
H                     1.57613000           1.44198000          -3.34589000         
H                     1.95880000           0.47755000           1.45505000         
H                    -0.87302000           1.76996000          -3.10777000         
H                    -0.81638000           1.15453000          -1.41291000         
