12

C                     1.48701000           1.53120000          -2.62933000         
C                     0.35311000           1.53085000          -1.67362000         
C                     1.06461000           0.87289000          -0.54229000         
O                     2.60229000           1.85270000          -1.83373000         
O                     2.35675000           1.43412000          -0.57902000         
O                     1.16578000          -0.51612000          -0.73132000         
H                     0.15249000           2.58762000          -1.38447000         
H                     1.64576000           0.52329000          -3.07631000         
H                     1.32270000           2.27292000          -3.43948000         
H                     0.56307000           1.09048000           0.42792000         
H                    -0.58822000           1.05220000          -2.01849000         
H                     0.26394000          -0.89236000          -0.55545000         
