12

C                     1.50539000           2.04474000          -2.84086000         
C                     0.59010000           1.09043000          -2.08472000         
C                     1.62616000           0.45584000          -1.28179000         
O                     2.63835000           2.27223000          -2.02427000         
O                     2.75271000           1.17111000          -1.33598000         
O                     1.46391000          -0.49359000          -0.53295000         
H                    -0.09303000           1.61279000          -1.38123000         
H                     1.87682000           1.54432000          -3.76418000         
H                     0.97757000           2.97885000          -3.12579000         
H                    -0.27230000          -0.01947000           1.79935000         
H                     0.03779000           0.42603000          -2.78289000         
H                    -0.71418000           0.25651000           1.31970000         
