12

C                     1.45070000           1.37763000          -2.70090000         
C                     0.14658000           0.88611000          -2.06288000         
C                     1.25174000           0.89087000          -0.02356000         
O                     2.37283000           1.80758000          -1.71008000         
O                     1.71088000           2.11090000          -0.59458000         
O                     0.47930000           0.10857000          -0.93480000         
H                     0.61728000           1.13592000           0.85360000         
H                     1.91760000           0.50792000          -3.21048000         
H                     1.25419000           2.17265000          -3.45088000         
H                     2.12215000           0.29900000           0.33302000         
H                    -0.44722000           0.29766000          -2.79362000         
H                    -0.48673000           1.74498000          -1.74043000         
