12

C                     1.62022000           1.55285000          -2.56449000         
C                     0.17815000           1.24154000          -2.14595000         
C                     1.04683000           0.49460000          -0.12429000         
O                     2.49381000           1.54335000          -1.44432000         
O                     1.78347000           1.69455000          -0.32742000         
O                     0.20544000           0.16844000          -1.23089000         
H                    -0.29291000           2.12585000          -1.65771000         
H                     1.95465000           0.73164000          -3.23371000         
H                     1.67564000           2.51459000          -3.11665000         
H                     1.75054000          -0.34370000           0.06977000         
H                    -0.43714000           0.99011000          -3.03540000         
H                     0.41059000           0.62598000           0.77546000         
