12

C                     0.62297000           0.97558000          -3.15493000         
C                    -0.53308000           1.23792000          -2.54978000         
C                     2.20142000           0.27554000           0.12510000         
O                     2.07066000           2.49651000          -0.48888000         
O                     1.65027000           1.50527000           0.22950000         
O                     3.12262000           0.06604000          -0.64834000         
H                     1.24920000           2.88702000          -0.88154000         
H                     1.25328000           0.16661000          -2.80136000         
H                     0.94362000           1.57013000          -4.00391000         
H                     1.82250000          -0.53370000           0.73950000         
H                    -1.16279000           2.04820000          -2.90232000         
H                    -0.85138000           0.64469000          -1.69863000         
