12

C                     1.23138000           2.05122000          -2.69797000         
C                     0.01119000           2.49754000          -2.37602000         
C                     2.34516000           0.23474000           0.13768000         
O                     1.99171000           1.32229000          -1.84448000         
O                     1.61142000           1.03775000          -0.66300000         
O                     3.38923000          -0.26011000          -0.25846000         
H                    -0.42969000           2.29422000          -1.40548000         
H                    -0.21014000          -0.71997000          -1.91223000         
H                     1.62886000           2.27701000          -3.68222000         
H                     1.99786000           0.02072000           1.14245000         
H                    -0.56054000           3.07464000          -3.09549000         
H                    -0.61714000          -0.49026000          -1.38036000         
