12

C                     1.02593000           1.85169000          -1.81929000         
C                    -0.27403000           1.60272000          -1.62118000         
C                     2.56264000          -0.31350000           0.47525000         
O                     1.99100000           1.29441000          -1.04596000         
O                     1.71587000           0.62426000          -0.00434000         
O                     3.55928000          -0.63181000          -0.15430000         
H                    -0.20567000           2.45275000          -4.73865000         
H                    -0.01200000           1.77493000          -4.80499000         
H                     1.32224000           2.50322000          -2.63387000         
H                     2.33095000          -0.81508000           1.40674000         
H                    -1.01857000           2.05056000          -2.27023000         
H                    -0.60834000           0.94565000          -0.82477000         
