9

C       -2.544951       0.050477       0.835818
C       -0.722956      -0.175265       2.275379
C        0.405153      -0.090956       1.713505
H       -1.441978      -0.052632       3.043802
H       -3.275248      -0.048997       1.617286
H       -2.675803       0.977517       0.273113
H       -2.630965      -0.774343       0.126242
H       -0.717517       0.145353       0.575525
H        1.471001      -0.018597       1.849885
