9

C       -2.516011      -0.385340       1.340673
C       -1.232257       0.229442       1.829253
C       -0.172212      -0.000154       0.867063
H       -0.971629       0.148772       2.874601
H       -2.875228      -0.136073       0.364012
H       -1.807877       1.266981       1.786377
H       -3.017374      -1.199164       1.831862
H       -0.286686       0.222466      -0.173007
H        0.825745      -0.180903       1.228582
