9
23.976803440378717
C       -2.437758       0.004219       0.954671
C       -1.097774      -0.109216       2.056128
C        0.080731      -0.058936       1.461136
H       -1.391940      -0.139258       3.091829
H       -3.290828      -0.110010       1.623568
H       -2.492569       0.904514       0.351569
H       -2.465155      -0.793756       0.213014
H       -0.050316       0.108060       0.412544
H        1.131020      -0.046395       1.690427
9
23.922495344316303
C       -2.437796       0.004280       0.954648
C       -1.098370      -0.109263       2.055764
C        0.080378      -0.058933       1.460859
H       -1.392625      -0.139296       3.091472
H       -3.290875      -0.109989       1.623536
H       -2.492587       0.904760       0.351789
H       -2.465240      -0.793669       0.212942
H       -0.050406       0.108061       0.412517
H        1.130694      -0.046329       1.690124
