9
33.73493975076508
C       -2.312792       0.007040       1.018610
C       -1.026821      -0.141110       2.087930
C        0.142009      -0.056678       1.516954
H       -1.556637      -0.066895       3.018524
H       -3.120550      -0.102025       1.737490
H       -2.390057       0.931246       0.460247
H       -2.350287      -0.809208       0.305193
H       -0.230790       0.165216       0.502245
H        1.190148      -0.066855       1.711793
9
33.6568848827128
C       -2.312943       0.006980       1.018876
C       -1.027518      -0.139996       2.087941
C        0.141145      -0.055441       1.517028
H       -1.557218      -0.065736       3.018555
H       -3.120899      -0.101913       1.737512
H       -2.390452       0.931191       0.460512
H       -2.349957      -0.809585       0.305804
H       -0.231414       0.165913       0.501976
H        1.189349      -0.065569       1.712264
