9
35.8497210686437
C       -2.830597       0.029002       0.349127
C       -0.061801      -0.163940       2.883171
C        0.931583      -0.088700       2.225041
H       -0.934745      -0.226185       3.463068
H       -3.564563      -0.049187       1.140816
H       -2.974543       0.960345      -0.182944
H       -2.952158      -0.799840      -0.336050
H       -1.834220       0.004844       0.772500
H        1.802434      -0.024649       1.642171
9
35.84969927523889
C       -2.830584       0.029003       0.349116
C       -0.061787      -0.163939       2.883202
C        0.931542      -0.088702       2.225032
H       -0.934700      -0.226194       3.463140
H       -3.564551      -0.049184       1.140792
H       -2.974522       0.960343      -0.182955
H       -2.952137      -0.799836      -0.336060
H       -1.834227       0.004844       0.772489
H        1.802356      -0.024645       1.642143
