9
40.69367157857505
C       -2.728966       0.065324       0.430236
C       -0.258369      -0.212750       2.755653
C        0.739545      -0.071341       2.089424
H       -1.124506      -0.236332       3.356944
H       -3.460504       0.008582       1.218170
H       -2.858824       0.985601      -0.135757
H       -2.833644      -0.789945      -0.232508
H       -1.596768       0.048997       0.740292
H        1.650189      -0.076918       1.544485
9
40.633952022788435
C       -2.729218       0.066431       0.430190
C       -0.258767      -0.211928       2.755178
C        0.739202      -0.071124       2.089274
H       -1.125189      -0.235050       3.356124
H       -3.460828       0.009997       1.217970
H       -2.858526       0.986905      -0.135636
H       -2.833796      -0.789102      -0.232265
H       -1.598107       0.049698       0.740622
H        1.650137      -0.076810       1.544552
