51

C                     5.36187000          -2.10087000          -1.22058000         
C                     5.44607000          -3.08003000          -0.31389000         
H                     2.75575000          -2.24310000           0.37908000         
H                     4.47491000          -2.04335000          -1.84542000         
H                     6.31335000          -3.17923000           0.33048000         
H                     4.63250000          -3.79187000          -0.20976000         
C                     6.45259000          -1.08586000          -1.43078000         
C                     5.95790000           0.34825000          -1.18897000         
C                     5.72386000           0.65217000           0.29182000         
Ga                    2.38739000          -0.74783000          -0.07718000         
H                     7.33778000          -1.28500000          -0.78576000         
H                     6.77250000          -1.17563000          -2.48971000         
H                     6.73266000           1.05864000          -1.54909000         
H                     5.02902000           0.52792000          -1.77498000         
H                     5.34467000           1.69102000           0.40134000         
H                     4.99416000          -0.04221000           0.74458000         
H                     6.67541000           0.56034000           0.85527000         
O                     1.77910000           0.06000000           1.33780000         
O                     1.21960000          -0.88210000          -1.36740000         
Si                    0.08940000           2.54510000          -1.00970000         
Si                   -1.37060000           2.00310000           1.88620000         
Si                    0.66790000          -0.38010000           2.47110000         
Si                   -1.96090000           0.44050000          -2.45410000         
Si                   -3.43280000          -0.00190000           0.42920000         
Si                   -1.38170000          -2.45420000           0.96460000         
Si                    0.05930000          -1.91470000          -1.87120000         
O                    -0.55720000           2.50500000           0.50700000         
O                    -0.38850000           0.93810000           2.71540000         
O                     1.70290000           1.89630000          -0.94540000         
O                    -0.86460000           1.64880000          -2.02160000         
O                    -2.74830000           1.19520000           1.37400000         
O                    -0.29260000          -1.65360000           1.94560000         
O                    -3.01710000           0.30350000          -1.16830000         
O                    -2.75020000          -1.47740000           0.83670000         
O                    -0.74010000          -2.63590000          -0.56550000         
O                    -1.13330000          -0.99950000          -2.68170000         
O                     1.29530000          -0.85980000           3.96590000         
O                    -1.75780000           3.38050000           2.76640000         
O                    -5.09110000           0.03210000           0.68260000         
O                    -1.77140000          -3.97450000           1.57090000         
O                     0.47140000           4.07630000          -1.59070000         
O                    -2.78050000           0.88700000          -3.85180000         
O                     0.64830000          -3.13240000          -2.88320000         
H                    -2.69920000           0.41650000          -4.69490000         
H                     2.41280000           2.50310000          -1.22960000         
H                    -0.13900000           4.80000000          -1.79090000         
H                    -2.40130000           3.40800000           3.48990000         
H                     1.74870000          -0.25530000           4.57250000         
H                    -1.82550000          -4.18150000           2.51600000         
H                     0.16200000          -3.95320000          -3.05710000         
H                    -5.72810000          -0.58000000           0.28630000         
