12

C                     1.08057000           1.70265000          -2.48247000         
C                     1.47285000           1.26662000          -1.27199000         
C                     2.15243000          -0.03140000          -1.08101000         
O                     0.45321000           2.89231000          -2.65904000         
O                     0.19355000           3.69948000          -1.68026000         
O                     2.38740000          -0.77228000          -2.02307000         
H                     0.62875000           4.55176000          -1.93700000         
H                     2.44323000          -0.33531000          -0.08108000         
H                     1.26230000           1.09269000          -3.36181000         
H                    -0.36665000          -1.36801000          -0.20945000         
H                    -0.61120000          -1.23014000          -0.85946000         
H                     1.29276000           1.87173000          -0.38916000         
