12

C                     1.35443000           1.63818000          -1.18841000         
C                     0.06545000           1.25831000          -1.26259000         
C                     2.44208000           0.63885000          -1.10762000         
O                     1.70366000           2.95031000          -1.18460000         
O                     0.83460000           3.90958000          -1.24137000         
O                     2.21000000          -0.56034000          -1.10247000         
H                     0.86292000           4.22032000          -2.18193000         
H                     3.47127000           0.97738000          -1.05025000         
H                     0.25834000          -1.75826000          -2.85875000         
H                     0.13655000          -2.13299000          -2.27042000         
H                    -0.21528000           0.21031000          -1.26462000         
H                    -0.73482000           1.98845000          -1.32277000         
