12

C                     0.41120000           1.76979000          -2.72505000         
C                    -0.58360000           1.36709000          -1.92562000         
C                     3.33428000          -1.83850000          -0.15949000         
O                     1.14037000           2.88606000          -2.47674000         
O                     0.92903000           3.64375000          -1.44738000         
O                     3.46122000          -2.24999000          -1.20113000         
H                     0.49484000           4.45443000          -1.81655000         
H                     1.88162000           0.70331000          -0.34979000         
H                     0.64713000           1.18147000          -3.60574000         
H                     1.36701000           0.38819000           0.02063000         
H                    -1.13703000           0.46465000          -2.16390000         
H                    -0.85380000           1.92177000          -1.03292000         
