12

C                     0.45750000           0.68628000          -2.71675000         
C                    -0.62958000           0.72005000          -1.93241000         
C                     2.19131000           0.71438000          -0.95759000         
O                     1.73871000           0.78291000          -2.26464000         
O                     1.70947000           2.74225000          -0.32060000         
O                     2.73590000           1.95067000          -0.57591000         
H                     1.65332000           3.35082000          -1.10179000         
H                     2.99306000          -0.05106000          -0.90878000         
H                     0.30774000           0.59380000          -3.78763000         
H                     1.42585000           0.37112000          -0.22957000         
H                    -1.61396000           0.64664000          -2.38283000         
H                    -0.58011000           0.83223000          -0.85730000         
