12

C                     0.56580000           0.38213000          -2.61314000         
C                    -0.55031000           0.48628000          -1.87703000         
C                     2.21397000           0.96040000          -0.86968000         
O                     2.58253000           2.30886000          -0.74191000         
O                     1.45505000           2.99230000          -0.65477000         
O                     1.81236000           0.70408000          -2.17017000         
H                     1.33230000           3.40311000          -1.54926000         
H                     3.10122000           0.33130000          -0.65031000         
H                     0.46831000           0.03761000          -3.63770000         
H                     1.46542000           0.67176000          -0.10077000         
H                    -1.50578000           0.21911000          -2.31587000         
H                    -0.55167000           0.84317000          -0.85520000         
