12

C                    -0.55717000           1.22408000          -3.12113000         
C                    -1.14938000           1.48187000          -2.10395000         
C                     2.46935000          -0.96529000          -0.53079000         
O                     2.08603000           2.59273000          -1.41444000         
O                     1.34670000           3.61582000          -1.03947000         
O                     2.83524000          -1.79494000          -1.34601000         
H                     0.83519000           3.86920000          -1.84998000         
H                     3.09853000          -0.11075000          -0.30772000         
H                    -0.03238000           0.99995000          -4.01272000         
H                     1.51436000          -1.08076000          -0.03013000         
H                     1.60604000           1.79636000          -1.07197000         
H                    -1.66330000           1.71183000          -1.20750000         
