12

C                     0.95641000           1.92586000          -2.72106000         
C                     0.99847000           1.17902000          -1.60939000         
C                     1.39433000          -0.97800000          -0.61055000         
O                     0.61969000           3.23901000          -2.70805000         
O                     0.31908000           3.87274000          -1.61913000         
O                     1.33864000          -0.12889000          -1.69613000         
H                     0.56718000           4.81388000          -1.80285000         
H                     2.42290000          -1.38324000          -0.51700000         
H                     1.19760000           1.46681000          -3.67502000         
H                     1.12470000          -0.46547000           0.33908000         
H                     0.69070000          -1.82085000          -0.77115000         
H                     0.75951000           1.61923000          -0.64456000         
