12

C                     0.16288000           0.87762000          -2.60799000         
C                    -1.13784000           1.12048000          -2.46429000         
C                     2.66318000           0.93493000          -0.66153000         
O                     1.06127000           1.62246000          -1.93112000         
O                     2.32536000           1.33879000          -1.96527000         
O                     2.73842000           2.04352000           0.19314000         
H                     1.80380000           2.28562000           0.42405000         
H                     3.65877000           0.44709000          -0.69016000         
H                     0.49651000           0.07570000          -3.26101000         
H                     1.96357000           0.15840000          -0.26789000         
H                    -1.86796000           0.52132000          -2.99745000         
H                    -1.47868000           1.91428000          -1.80627000         
