12

C                     0.70611000           0.86371000          -2.82027000         
C                    -0.36588000           0.55208000          -2.07725000         
C                     2.51800000           0.19397000          -1.29002000         
O                     2.00054000           0.79432000          -2.39589000         
O                     1.31285000           3.30749000           0.02280000         
O                     1.86173000          -0.56047000          -0.59101000         
H                     0.78199000           3.35879000          -0.81148000         
H                     3.56486000           0.34899000          -1.05449000         
H                     0.53118000           1.21630000          -3.83175000         
H                     1.13766000           2.39794000           0.37276000         
H                    -1.35731000           0.65031000          -2.50757000         
H                    -0.30253000           0.21668000          -1.05163000         
