12

C                     0.95921000           1.32177000          -1.87305000         
C                    -0.19440000           0.97789000          -1.36762000         
C                     2.56506000          -1.08503000          -0.38365000         
O                     2.01647000           1.63643000          -2.33462000         
O                    -0.16513000           4.18530000          -2.80066000         
O                     2.97441000          -1.86500000          -1.22673000         
H                     0.59754000           4.34291000          -2.18881000         
H                     3.12196000          -0.18020000          -0.16572000         
H                     0.21321000           3.63558000          -3.53246000         
H                     1.63596000          -1.28734000           0.13770000         
H                    -0.69594000           0.08441000          -1.72200000         
H                    -0.63914000           1.57337000          -0.57817000         
