12

C                    -0.22394000           0.59047000          -2.45742000         
C                    -1.26040000           1.20158000          -1.87769000         
C                     3.48276000           1.34950000          -0.68361000         
O                     0.70032000          -0.07189000          -1.72762000         
O                     2.60324000           2.37192000          -0.71056000         
O                     3.81458000           0.79141000          -1.71704000         
H                     2.21780000           2.68365000          -1.54172000         
H                     3.89534000           1.01973000           0.26343000         
H                    -0.11894000           0.62399000          -3.53693000         
H                     0.65651000          -0.12859000          -0.76203000         
H                    -1.99078000           1.72641000          -2.48488000         
H                    -1.38729000           1.18193000          -0.79974000         
