12

C                     1.15391000           1.01059000          -1.80257000         
C                     0.01230000           1.02723000          -0.77422000         
C                     1.98750000          -0.22761000          -1.61290000         
O                     1.99269000           2.13755000          -1.65996000         
O                     1.24390000           3.21255000          -1.84435000         
O                     2.93084000          -0.45234000          -2.35200000         
H                     1.41601000           3.49831000          -2.77685000         
H                     0.42290000           1.07905000           0.25665000         
H                     0.73061000           0.97459000          -2.83249000         
H                     1.75807000          -0.93603000          -0.82061000         
H                    -0.60994000           0.11283000          -0.87634000         
H                    -0.64959000           1.90339000          -0.94018000         
