45

C                     5.31278000          -0.89250000          -0.59266000         
C                     4.02154000          -1.24462000           0.14000000         
C                     5.14826000          -0.97169000          -2.10825000         
Ga                    2.50538000           0.09152000          -0.07318000         
H                     6.09210000          -1.62724000          -0.29371000         
H                     5.65382000           0.12168000          -0.29401000         
H                     4.22950000          -1.26784000           1.23064000         
H                     3.71174000          -2.26012000          -0.17239000         
H                     6.12224000          -0.75494000          -2.59568000         
H                     4.82703000          -1.99317000          -2.40396000         
H                     4.39960000          -0.23428000          -2.46277000         
O                     1.40580000          -0.23430000          -1.41560000         
O                     1.65900000           0.25870000           1.44890000         
Si                   -0.44180000          -2.71990000           0.54110000         
Si                   -1.98890000          -1.45370000          -2.03650000         
Si                    0.45800000           0.51570000          -2.51220000         
Si                   -1.81470000          -0.46100000           2.52120000         
Si                   -3.40780000           0.68790000          -0.04260000         
Si                   -0.89980000           2.68860000          -0.54320000         
Si                    0.68710000           1.43370000           2.04340000         
O                    -1.17000000          -2.38940000          -0.90590000         
O                    -0.90110000          -0.46750000          -2.83770000         
O                     1.27100000          -2.41900000           0.44060000         
O                    -1.09150000          -1.74440000           1.70350000         
O                    -3.05350000          -0.48800000          -1.17430000         
O                    -0.19160000           1.94870000          -1.87310000         
O                    -2.99840000           0.11470000           1.48630000         
O                    -2.43310000           2.01180000          -0.35640000         
O                    -0.01160000           2.37100000           0.82430000         
O                    -0.64900000           0.70230000           2.81920000         
O                     1.26190000           0.84720000          -3.95890000         
O                    -2.78910000          -2.52170000          -3.05560000         
O                    -5.04530000           1.04760000          -0.12820000         
O                    -1.00440000           4.35910000          -0.72880000         
O                    -0.37830000          -4.35720000           0.92090000         
O                    -2.52680000          -0.98630000           3.95040000         
O                     1.49890000           2.44730000           3.12390000         
H                    -2.18220000          -0.77500000           4.83110000         
H                     1.83570000          -3.20290000           0.57640000         
H                    -1.11540000          -4.98310000           0.95680000         
H                    -3.37020000          -2.26420000          -3.78600000         
H                     0.81830000           1.17500000          -4.75570000         
H                    -1.47110000           4.79900000          -1.45470000         
H                     1.13650000           3.29400000           3.42740000         
H                    -5.57980000           1.35290000           0.61960000         
