42

C                     3.61668000           1.75209000          -0.33130000         
C                     3.82729000           2.12169000          -1.78976000         
H                     3.12212000           2.59539000           0.19545000         
H                     4.60061000           1.56472000           0.14740000         
H                     2.85608000           2.35029000          -2.27100000         
H                     4.46958000           3.02470000          -1.85206000         
Ga                    2.49954000           0.09586000          -0.07193000         
H                     4.32396000           1.28890000          -2.33009000         
O                     1.40580000          -0.23430000          -1.41560000         
O                     1.65900000           0.25870000           1.44890000         
Si                   -0.44180000          -2.71990000           0.54110000         
Si                   -1.98890000          -1.45370000          -2.03650000         
Si                    0.45800000           0.51570000          -2.51220000         
Si                   -1.81470000          -0.46100000           2.52120000         
Si                   -3.40780000           0.68790000          -0.04260000         
Si                   -0.89980000           2.68860000          -0.54320000         
Si                    0.68710000           1.43370000           2.04340000         
O                    -1.17000000          -2.38940000          -0.90590000         
O                    -0.90110000          -0.46750000          -2.83770000         
O                     1.27100000          -2.41900000           0.44060000         
O                    -1.09150000          -1.74440000           1.70350000         
O                    -3.05350000          -0.48800000          -1.17430000         
O                    -0.19160000           1.94870000          -1.87310000         
O                    -2.99840000           0.11470000           1.48630000         
O                    -2.43310000           2.01180000          -0.35640000         
O                    -0.01160000           2.37100000           0.82430000         
O                    -0.64900000           0.70230000           2.81920000         
O                     1.26190000           0.84720000          -3.95890000         
O                    -2.78910000          -2.52170000          -3.05560000         
O                    -5.04530000           1.04760000          -0.12820000         
O                    -1.00440000           4.35910000          -0.72880000         
O                    -0.37830000          -4.35720000           0.92090000         
O                    -2.52680000          -0.98630000           3.95040000         
O                     1.49890000           2.44730000           3.12390000         
H                    -2.18220000          -0.77500000           4.83110000         
H                     1.83570000          -3.20290000           0.57640000         
H                    -1.11540000          -4.98310000           0.95680000         
H                    -3.37020000          -2.26420000          -3.78600000         
H                     0.81830000           1.17500000          -4.75570000         
H                    -1.47110000           4.79900000          -1.45470000         
H                     1.13650000           3.29400000           3.42740000         
H                    -5.57980000           1.35290000           0.61960000         
