12

C                     1.26322000           0.43311000          -2.17844000         
C                     0.13993000          -0.26100000          -1.41542000         
C                     1.77779000           1.61906000          -1.41545000         
O                     0.94324000           2.64402000          -1.12532000         
O                     1.35267000           3.68594000          -0.47506000         
O                     2.94904000           1.65836000          -1.06725000         
H                     1.41805000           4.39994000          -1.15924000         
H                     2.08534000          -0.29627000          -2.34871000         
H                     0.88461000           0.77404000          -3.16555000         
H                     0.50903000          -0.62165000          -0.43143000         
H                    -0.22374000          -1.13198000          -2.00035000         
H                    -0.70984000           0.43620000          -1.25372000         
