12

C                     2.75366000           1.03237000          -2.65661000         
C                    -0.56527000           0.85280000          -0.66713000         
C                     2.88000000          -0.09679000          -2.01631000         
O                    -0.40279000           1.95133000          -1.52136000         
O                     0.48826000           2.73036000          -0.93897000         
O                     2.99338000          -1.13275000          -1.42704000         
H                     0.78342000           3.34900000          -1.65420000         
H                     3.15970000           1.94408000          -2.23222000         
H                     2.18279000           1.07234000          -3.57781000         
H                     0.37011000           0.25592000          -0.60903000         
H                    -1.36109000           0.19873000          -1.07872000         
H                    -0.89295000           1.18251000           0.34350000         
