12

C                     2.01928000           1.71521000          -1.73384000         
C                    -0.33888000          -0.36234000          -1.11071000         
C                     0.75485000          -1.02717000          -1.37236000         
O                     0.82936000           2.39318000          -2.03383000         
O                     0.76691000           3.40510000          -1.19102000         
O                     1.76924000          -1.60539000          -1.63504000         
H                     1.02599000           4.19466000          -1.73163000         
H                     2.89981000           2.38291000          -1.79802000         
H                     2.16099000           0.91932000          -2.49357000         
H                     1.96247000           1.25367000          -0.72227000         
H                    -1.15018000          -0.37631000          -1.82672000         
H                    -0.31063000           0.44705000          -0.38689000         
