12

C                     1.67514000           1.42295000          -2.22140000         
C                    -0.15784000           0.40010000          -0.84887000         
C                     1.07093000           0.31494000          -1.38821000         
O                     0.80732000           2.52082000          -2.38953000         
O                     0.99380000           3.31620000          -1.35104000         
O                     1.81505000          -0.79825000          -1.19371000         
H                     1.46690000           4.10639000          -1.71850000         
H                     2.64999000           1.73886000          -1.78175000         
H                     1.90857000           1.01634000          -3.22749000         
H                     1.50249000          -1.55379000          -0.67490000         
H                    -0.55656000          -0.41818000          -0.25724000         
H                    -0.78659000           1.27353000          -0.98326000         
