12

C                     2.35161000           0.96866000          -1.57695000         
C                     0.48209000          -0.10321000          -0.39289000         
C                     1.02687000           0.76764000          -1.48454000         
O                     0.53286000           2.14993000          -3.29328000         
O                     0.10994000           3.33485000          -2.89994000         
O                     0.15548000           1.33771000          -2.35606000         
H                     0.89458000           3.75364000          -2.46084000         
H                     3.03260000           0.50559000          -0.86890000         
H                     2.77598000           1.59339000          -2.35616000         
H                     0.89982000          -1.12841000          -0.47947000         
H                    -0.62460000          -0.16161000          -0.46405000         
H                     0.75196000           0.32172000           0.59718000         
