12

C                     1.61427000           1.78841000          -1.90901000         
C                     0.12071000           0.03461000          -0.67938000         
C                     1.46401000           0.48290000          -1.17554000         
O                     0.82189000           1.77560000          -3.06755000         
O                     1.20034000           2.83308000          -1.07243000         
O                     2.44497000          -0.21947000          -0.98179000         
H                     1.37703000           3.67603000          -1.56618000         
H                     2.68817000           1.94767000          -2.17401000         
H                     1.32157000           1.25469000          -3.74948000         
H                     0.19937000          -0.94743000          -0.16587000         
H                    -0.58134000          -0.06555000          -1.53319000         
H                    -0.28180000           0.77937000           0.03854000         
