12

C                     1.37497000           1.68255000          -2.04001000         
C                     0.13992000          -0.09997000          -0.59860000         
C                     1.37320000           0.36205000          -1.31621000         
O                     2.62103000           1.89704000          -2.64975000         
O                     1.11438000           2.70830000          -1.12004000         
O                     2.37156000          -0.34360000          -1.31294000         
H                     0.84905000           3.50318000          -1.65191000         
H                     2.49836000           2.65093000          -3.28360000         
H                     0.56984000           1.62733000          -2.81149000         
H                     0.30857000          -1.09079000          -0.12503000         
H                    -0.70037000          -0.18712000          -1.31864000         
H                    -0.13133000           0.63002000           0.19232000         
