12

C                     1.56765000           0.75964000          -2.31608000         
C                     0.05745000          -0.27979000          -0.49042000         
C                     1.39322000          -0.13323000          -1.15665000         
O                     0.62345000           1.39028000          -2.76476000         
O                     1.92082000           4.24890000          -2.10822000         
O                     2.35222000          -0.76124000          -0.73532000         
H                     1.02263000           4.29943000          -1.69430000         
H                     2.54344000           0.85915000          -2.78079000         
H                     1.75435000           3.90219000          -3.02071000         
H                     0.11720000          -0.99477000           0.35775000         
H                    -0.68678000          -0.65644000          -1.22306000         
H                    -0.27646000           0.70579000          -0.10334000         
