12

C                     2.22937000           1.41156000          -2.24063000         
C                     0.44416000           0.17472000          -0.80341000         
C                     1.76357000           0.18700000          -1.51411000         
O                    -1.17329000           3.17232000          -1.91249000         
O                    -0.72412000           3.51964000          -0.91189000         
O                     2.46909000          -0.80988000          -1.50300000         
H                     1.48331000           2.22903000          -2.15949000         
H                     3.18857000           1.76135000          -1.80499000         
H                     2.38055000           1.17330000          -3.31423000         
H                     0.26523000          -0.81095000          -0.32311000         
H                    -0.37243000           0.37130000          -1.52910000         
H                     0.43519000           0.96051000          -0.01946000         
