12

C                     1.70917000           1.37400000          -2.56461000         
C                    -0.10579000           0.59529000          -1.31891000         
C                     1.23570000           0.28298000          -1.74804000         
O                     0.60661000           2.24305000          -2.68355000         
O                    -0.34585000           1.89819000          -1.79846000         
O                     1.86137000          -0.72678000          -1.46765000         
H                     2.19451000           1.93269000           0.59485000         
H                     2.57052000           1.88344000          -2.08327000         
H                     1.98379000           0.99001000          -3.56954000         
H                     1.66028000           2.39551000           0.55444000         
H                    -0.83401000          -0.12823000          -1.74190000         
H                    -0.14709000           0.59977000          -0.20926000         
