12

C                     1.49253000           1.55234000          -2.55675000         
C                     0.51164000           0.04593000          -0.80117000         
C                     1.51422000           1.15751000          -1.14095000         
O                     0.39131000           2.39472000          -2.60907000         
O                     0.20866000           2.86986000          -1.36620000         
O                     1.12789000           2.34367000          -0.54525000         
H                     2.53503000           0.84055000          -0.83566000         
H                     2.39141000           2.16171000          -2.80016000         
H                     1.41949000           0.68527000          -3.24782000         
H                     0.79135000          -0.89038000          -1.32917000         
H                    -0.52246000           0.32633000          -1.09587000         
H                     0.52812000          -0.14761000           0.29217000         
