12

C                     2.57278000           1.96420000          -1.57528000         
C                    -0.54356000          -0.32065000          -1.17291000         
C                     2.80478000           0.68414000          -1.68217000         
O                     1.31120000           2.42974000          -1.67799000         
O                     1.06236000           3.69368000          -1.56164000         
O                     3.01616000          -0.48947000          -1.77920000         
H                     0.93921000           4.01350000          -2.49153000         
H                     3.39926000           2.64650000          -1.40331000         
H                    -0.06982000          -0.12663000          -2.15713000         
H                    -0.14226000          -1.26426000          -0.74991000         
H                    -1.64130000          -0.40777000          -1.30393000         
H                    -0.31961000           0.51693000          -0.48089000         
