12

C                     2.27504000           1.20461000          -2.19176000         
C                     0.75107000           0.59477000          -0.53140000         
C                     1.80101000           0.10182000          -1.39016000         
O                     1.41555000           2.27440000          -1.87387000         
O                     0.73070000           1.98559000          -0.75350000         
O                     2.21426000          -1.04587000          -1.43231000         
H                    -1.60682000           2.30150000          -2.24002000         
H                     3.33015000           1.44966000          -1.94781000         
H                     2.16134000           0.95228000          -3.26718000         
H                    -0.22401000           0.12949000          -0.78890000         
H                    -1.47860000           2.99163000          -2.14710000         
H                     1.01951000           0.40001000           0.52812000         
