12

C                     1.69653000           0.81245000          -2.53348000         
C                     0.48395000           1.49191000          -0.31931000         
C                     1.55521000           0.72109000          -1.03925000         
O                     0.51426000           0.40028000          -3.16246000         
O                     0.66493000           2.86934000          -0.50650000         
O                     2.31771000           0.00867000          -0.40398000         
H                     0.20509000           3.10836000          -1.35339000         
H                     1.90522000           1.86417000          -2.82007000         
H                     2.55506000           0.20139000          -2.89529000         
H                     0.49088000          -0.59055000          -3.10136000         
H                    -0.52356000           1.17286000          -0.67144000         
H                     0.52393000           1.27994000           0.77063000         
