12

C                     1.48097000           1.17529000          -2.69288000         
C                     0.74851000           1.02365000          -0.18903000         
C                     1.48206000           0.45662000          -1.37164000         
O                     0.16961000           1.36186000          -3.15038000         
O                     1.27189000           2.27770000           0.15489000         
O                     2.07897000          -0.60426000          -1.26205000         
H                     0.80208000           2.94907000          -0.40610000         
H                     1.95699000           2.16993000          -2.56555000         
H                     2.07467000           0.62211000          -3.45542000         
H                     0.84938000           0.34876000           0.68762000         
H                    -0.18567000           0.46168000          -3.37196000         
H                    -0.34027000           1.09748000          -0.41340000         
