12

C                     1.21452000           0.92244000          -2.80137000         
C                     0.10894000          -0.02403000          -0.66042000         
C                     1.24293000           0.01286000          -1.64161000         
O                     0.26300000           1.66357000          -2.99098000         
O                     1.86396000           3.54851000          -0.84704000         
O                     2.20621000          -0.72029000          -1.48045000         
H                     1.34082000           3.96220000          -1.57904000         
H                     2.63925000           3.13220000          -1.30121000         
H                     2.04805000           0.93844000          -3.49614000         
H                     0.30564000          -0.76935000           0.13975000         
H                    -0.82975000          -0.30243000          -1.18368000         
H                    -0.01436000           0.97577000          -0.19372000         
