12

C                     1.49644000           1.35130000          -2.71340000         
C                     0.73704000           0.58816000          -0.32948000         
C                     1.49359000           0.33612000          -1.60423000         
O                     0.19355000           1.55893000          -3.18716000         
O                     1.24102000           1.72370000           0.31983000         
O                     2.11425000          -0.70739000          -1.74057000         
H                     0.76951000           2.50872000          -0.06379000         
H                     1.94812000           2.30714000          -2.36277000         
H                     2.12213000           0.99467000          -3.55948000         
H                     0.83968000          -0.27978000           0.35657000         
H                    -0.35071000           0.70182000          -0.54034000         
H                    -0.21541000           2.25651000          -2.61108000         
