12

C                     1.84008000           1.49839000          -2.61652000         
C                    -0.53137000           0.56462000          -0.70299000         
C                     2.58326000           1.48864000          -1.29923000         
O                     0.45739000           1.20763000          -2.52341000         
O                    -0.01179000           1.68068000          -1.37839000         
O                     3.46515000           0.67439000          -1.08902000         
H                     2.33813000           2.21998000          -0.53389000         
H                     1.98430000           2.47923000          -3.11582000         
H                     2.28665000           0.71546000          -3.26630000         
H                     0.23850000          -0.23365000          -0.59954000         
H                    -1.42956000           0.17827000          -1.23171000         
H                    -0.83155000           0.86627000           0.32093000         
