12
64.57856400753371
C        1.256805       1.496266      -2.646649
C        0.754405       0.504478      -1.633709
C        1.295235       0.110139      -0.308245
O        0.747942       2.796069      -2.398341
O        1.150772       3.240805      -1.111483
O        2.368640      -0.322195      -0.058573
H        1.538409       4.103640      -1.282437
H        2.363081       1.526360      -2.659707
H        0.847160       1.274342      -3.641503
H       -0.071989      -0.542787       0.203582
H        0.414833      -0.420587      -2.065406
H       -0.370121       0.669523      -1.138210
12
64.50466396755837
C        1.257135       1.496460      -2.646357
C        0.754657       0.504554      -1.633573
C        1.295341       0.110010      -0.308067
O        0.748179       2.796218      -2.398086
O        1.150730       3.240839      -1.111096
O        2.368652      -0.322434      -0.058176
H        1.538089       4.103838      -1.281863
H        2.363435       1.526677      -2.659263
H        0.847550       1.274573      -3.641251
H       -0.071362      -0.542952       0.203326
H        0.415240      -0.420532      -2.065399
H       -0.369533       0.669395      -1.138446
