12
113.13128348760074
C        1.299891       1.541384      -2.651504
C        0.859939       0.548426      -1.615162
C        1.412294       0.101273      -0.309428
O        0.748959       2.825507      -2.420793
O        1.212632       3.365484      -1.186422
O        2.379496      -0.540762      -0.113421
H        1.276654       4.308431      -1.389266
H        2.399040       1.604830      -2.723814
H        0.861513       1.290126      -3.620165
H       -0.310672      -0.432528      -0.035678
H        0.336489      -0.310883      -2.001811
H       -0.219528       0.734500      -0.908394
12
113.05277697587917
C        1.299679       1.541675      -2.651422
C        0.859805       0.548392      -1.615294
C        1.412342       0.100998      -0.309773
O        0.748737       2.825744      -2.420617
O        1.212359       3.365583      -1.186158
O        2.379217      -0.541345      -0.113343
H        1.275649       4.308655      -1.388756
H        2.398811       1.605270      -2.723806
H        0.861253       1.290468      -3.620081
H       -0.310296      -0.432157      -0.036264
H        0.336412      -0.310940      -2.002044
H       -0.218791       0.734426      -0.908766
