12
33.86799667133164
C        1.501209       1.559143      -2.843343
C        1.034808       0.496578      -1.876660
C        1.719536       0.167334      -0.827444
O        1.043221       2.847163      -2.512769
O        1.754101       3.316960      -1.366185
O        2.359833      -0.171015       0.080081
H        1.270192       4.121744      -1.141556
H        2.594725       1.563908      -2.910923
H        1.066528       1.388959      -3.830274
H       -1.326228      -1.170788       0.743124
H        0.030533       0.126716      -1.989852
H       -0.659358      -0.907191       0.439991
12
33.86789242945815
C        1.501226       1.559124      -2.843348
C        1.034816       0.496558      -1.876660
C        1.719538       0.167349      -0.827464
O        1.043253       2.847158      -2.512776
O        1.754126       3.316943      -1.366165
O        2.359807      -0.170955       0.080017
H        1.270126       4.121694      -1.141470
H        2.594732       1.563880      -2.910912
H        1.066546       1.388948      -3.830300
H       -1.326172      -1.170712       0.743100
H        0.030526       0.126697      -1.989852
H       -0.659423      -0.907173       0.440021
