16

C                     4.51676000           2.06944000          -0.10934000         
C                     5.02890000           1.51891000           1.17297000         
C                     4.64200000           1.48260000          -1.31739000         
C                     4.73670000           2.11055000           2.33661000         
H                     3.97135000           3.00723000          -0.06802000         
H                     5.62610000           0.61577000           1.20890000         
H                     4.18398000           1.99278000          -2.16094000         
H                     5.10044000           1.68540000           3.26943000         
H                     4.12196000           3.00433000           2.37613000         
C                     5.30981000           0.16470000          -1.61260000         
C                     6.38665000           0.32398000          -2.67620000         
H                     5.77118000          -0.29949000          -0.71782000         
H                     4.54649000          -0.53589000          -2.00658000         
H                     6.83794000          -0.66778000          -2.89450000         
H                     5.93821000           0.71695000          -3.61319000         
H                     7.18291000           1.01406000          -2.32576000         
