8

H                     4.16806000          -0.77103000          -2.14625000         
C                     4.88807000          -1.60766000          -2.04769000         
C                     6.05260000          -1.37751000          -2.99058000         
H                     5.25637000          -1.65716000          -1.00105000         
H                     4.37107000          -2.55750000          -2.29736000         
H                     6.77524000          -2.21504000          -2.90301000         
H                     5.68007000          -1.31956000          -4.03452000         
H                     6.56105000          -0.42521000          -2.73012000         
