13

C         -0.80565       -1.21848       -0.22356
C          1.90849        0.39207       -0.19410
C         -0.61470        0.24892       -0.00308
C          0.52823        0.92678        0.00924
O         -1.82269        0.86880        0.19958
H         -1.68637        1.81262        0.34054
H          0.48623        1.99679        0.18545
H          0.13599       -1.72801       -0.38908
H         -1.45392       -1.37031       -1.08486
H         -1.30135       -1.65018        0.64426
H          2.37635        0.88172       -1.04878
H          1.91269       -0.67894       -0.36742
H          2.52301        0.60215        0.68188
13

C         -1.23209       -1.30563       -0.18998
C          1.88758       -0.17614        0.70978
C          0.07368       -0.69951        0.14097
C          0.72262        0.46281        0.00896
O          1.09339       -1.37933        0.79655
H          2.19566       -3.24497        1.80720
H          0.53587        1.42936       -0.40312
H         -1.08858       -2.17752       -0.82691
H         -1.85354       -0.57791       -0.70423
H         -1.73282       -1.63515        0.71956
H          2.73913       -3.15581        1.25823
H          2.79018       -0.34122        0.12188
H          2.13884        0.20251        1.70009

