12

C                    -4.30216000          -1.73945000          -2.13434000         
C                    -6.07489000          -0.18858000          -0.07814000         
C                    -4.07485000          -1.65238000          -0.65248000         
C                    -4.84448000          -0.99128000           0.23484000         
H                    -3.20630000          -2.18111000          -0.26589000         
H                    -4.55287000          -1.03722000           1.28109000         
H                    -4.46677000          -2.80341000          -2.39407000         
H                    -5.15724000          -1.15608000          -2.51030000         
H                    -3.40914000          -1.37611000          -2.66758000         
H                    -6.94794000          -0.70621000           0.35876000         
H                    -6.00363000           0.80066000           0.40001000         
H                    -6.25154000          -0.01126000          -1.15242000         
