16

C                    -6.13107000           0.41995000          -1.80073000         
C                    -7.81626000           0.38184000           0.80896000         
C                    -6.07300000          -0.63235000          -0.71176000         
C                    -6.80161000          -0.64951000           0.41698000         
H                    -5.40089000          -1.46713000          -0.87281000         
H                    -6.65179000          -1.47927000           1.10328000         
H                    -7.15908000           0.44277000          -2.21331000         
H                    -5.44195000           0.09545000          -2.60997000         
H                    -8.80020000          -0.11072000           0.94335000         
H                    -7.50875000           0.84261000           1.77342000         
H                    -7.93301000           1.18386000           0.05310000         
C                    -5.73046000           1.83787000          -1.43127000         
C                    -5.35276000           2.26258000          -0.22114000         
H                    -5.75192000           2.57054000          -2.23533000         
H                    -5.08381000           3.30537000          -0.07679000         
H                    -5.29522000           1.60345000           0.63559000         
