46

C                    -4.38008000          -0.78242000          -2.03970000         
C                    -6.62192000          -0.83300000          -0.03199000         
C                    -4.25078000          -0.21380000          -0.65209000         
C                    -5.26151000          -0.24304000           0.23753000         
H                    -5.10402000           0.18216000           1.22100000         
H                    -4.59072000          -1.87131000          -1.99125000         
H                    -5.19791000          -0.26613000          -2.58618000         
H                    -3.45408000          -0.63428000          -2.62266000         
H                    -6.81682000          -1.64638000           0.69676000         
H                    -7.39039000          -0.04272000           0.09596000         
H                    -6.73041000          -1.25360000          -1.05065000         
Ga                   -2.51279000           0.63892000          -0.12019000         
O                    -1.38560000           0.47910000          -1.46480000         
O                    -1.93710000           0.05430000           1.44180000         
Si                    1.39130000           2.81790000          -0.50580000         
Si                    2.62820000           0.39840000          -2.16990000         
Si                   -0.45770000          -0.75770000          -2.10940000         
Si                    1.87840000           0.99350000           2.19940000         
Si                    3.27690000          -1.35270000           0.42410000         
Si                    0.36210000          -2.76230000           0.32300000         
Si                   -0.87990000          -0.68940000           2.45190000         
O                     2.43510000           1.92580000          -1.50590000         
O                     1.09930000          -0.23010000          -2.40080000         
O                    -0.14220000           2.85760000          -1.19280000         
O                     1.44450000           2.04440000           0.97550000         
O                     3.44430000          -0.57540000          -1.06160000         
O                    -0.36570000          -1.99730000          -0.97660000         
O                     2.87970000          -0.18180000           1.55290000         
O                     2.00930000          -2.43510000           0.30520000         
O                    -0.29060000          -2.09990000           1.71370000         
O                     0.48910000           0.24960000           2.75930000         
O                    -1.15920000          -1.31140000          -3.54630000         
O                     3.42400000           0.41450000          -3.64990000         
O                     4.66270000          -2.19870000           0.85310000         
O                     0.08430000          -4.41560000           0.18990000         
O                     1.94010000           4.39550000          -0.28150000         
O                     2.72520000           1.76240000           3.43390000         
O                    -1.64630000          -1.06550000           3.90950000         
H                     2.51140000           2.64300000           3.77650000         
H                    -0.64380000           2.05160000          -1.48560000         
H                     1.70600000           5.12010000          -0.88120000         
H                     4.36900000           0.59020000          -3.76760000         
H                    -0.64660000          -1.69960000          -4.27240000         
H                     0.63540000          -5.09500000           0.60640000         
H                    -1.16550000          -1.37870000           4.69090000         
H                     5.45620000          -1.79430000           1.23410000         
