6

H                    -5.81989000           2.14582000          -1.36731000         
C                    -5.20821000           2.96625000          -1.00773000         
C                    -4.95879000           3.09671000           0.29319000         
H                    -4.79876000           3.67730000          -1.71741000         
H                    -4.34338000           3.91521000           0.65206000         
H                    -5.36429000           2.38150000           1.00178000         
