12
191.65167457003008
C        0.891634       1.296431      -1.869993
C        0.340441       0.411506      -0.752444
C        1.493503      -0.457517      -1.529107
O        1.977019       2.216573      -1.962151
O        1.432642       3.481218      -2.418157
O        2.468301      -1.001942      -1.067829
H        2.243388       3.994935      -2.529883
H        0.638703       1.705334      -0.583029
H        0.470752       1.307304      -2.872204
H        1.050287      -0.924228      -2.420357
H        0.049302      -0.259698       0.065302
H       -0.405012       0.989438      -0.011119
12
191.59530459078815
C        0.891657       1.296236      -1.870075
C        0.340477       0.411465      -0.752457
C        1.493391      -0.457249      -1.529147
O        1.976997       2.216309      -1.962115
O        1.432737       3.481036      -2.418107
O        2.468258      -1.001449      -1.067820
H        2.243474       3.994720      -2.529674
H        0.638773       1.705148      -0.583156
H        0.470709       1.307063      -2.872282
H        1.050081      -0.924026      -2.420259
H        0.049734      -0.259719       0.065364
H       -0.405151       0.989372      -0.011142
12
191.3704317390384
C        0.891749       1.295457      -1.870402
C        0.340611       0.411306      -0.752507
C        1.492952      -0.456182      -1.529311
O        1.976911       2.215257      -1.961974
O        1.433118       3.480312      -2.417909
O        2.468096      -0.999486      -1.067785
H        2.243823       3.993864      -2.528840
H        0.639048       1.704409      -0.583665
H        0.470534       1.306094      -2.872593
H        1.049262      -0.923232      -2.419878
H        0.051457      -0.259800       0.065621
H       -0.405714       0.989113      -0.011230
