12
165.37291957408343
C        0.771180       1.475665      -1.790922
C        0.454612       0.424092      -0.747359
C        1.460956      -0.540362      -1.400771
O        1.916149       2.284355      -1.904327
O        1.489261       3.556795      -2.452101
O        2.246120      -1.360449      -0.994973
H        2.332583       4.024952      -2.536138
H        0.332460       1.978214      -0.658013
H        0.469071       1.257676      -2.813769
H        1.128525      -0.626360      -2.442378
H        0.384563      -0.017381       0.323577
H       -0.438327       0.512955      -0.089864
12
165.2873585506586
C        0.771289       1.475567      -1.791083
C        0.454823       0.423858      -0.747582
C        1.460876      -0.540543      -1.400699
O        1.916278       2.284375      -1.904381
O        1.489327       3.556801      -2.452164
O        2.246072      -1.360484      -0.994823
H        2.332622       4.024928      -2.536163
H        0.332779       1.978108      -0.658474
H        0.469105       1.257538      -2.813837
H        1.128303      -0.626598      -2.442478
H        0.384943      -0.017560       0.323588
H       -0.438252       0.512932      -0.090080
