12
30.170394624708933
C        0.913028       1.020950      -1.807595
C        0.128795       0.725938      -0.549179
C        1.691481      -0.333872      -1.807837
O        1.955952       1.940242      -1.944995
O        1.407021       3.222106      -2.269467
O        2.892038      -0.365833      -1.708524
H        2.206475       3.747806      -2.409346
H        0.805600       1.088499       0.222791
H        0.245031       1.142391      -2.671957
H        1.200358      -1.305873      -1.952156
H       -0.545711      -0.085601      -0.359798
H       -0.501227       1.599743      -0.226747
12
30.091729020510684
C        0.913131       1.020677      -1.807880
C        0.128958       0.726220      -0.549266
C        1.691491      -0.333888      -1.807867
O        1.955818       1.940133      -1.944865
O        1.406777       3.221938      -2.269342
O        2.891910      -0.365896      -1.708064
H        2.206194       3.747776      -2.408953
H        0.805922       1.088821       0.222623
H        0.245158       1.141944      -2.672320
H        1.199765      -1.305617      -1.952391
H       -0.545230      -0.085523      -0.359670
H       -0.501067       1.600211      -0.227072
