12
0.0
C        0.452833       1.683427      -1.587884
C        0.605915       0.410187      -0.765222
C        1.424509      -0.630504      -1.481888
O        1.744535       2.229984      -1.717773
O        1.652381       3.441203      -2.465827
O        2.176412      -1.396643      -0.954127
H        2.561298       3.767109      -2.433653
H       -0.205201       2.401005      -1.081189
H        0.038335       1.465669      -2.581710
H        1.257574      -0.648556      -2.575929
H        1.066045       0.630742       0.198779
H       -0.385728      -0.013912      -0.589368
12
-9.859428791969549e-05
C        0.452813       1.683425      -1.587846
C        0.605891       0.410178      -0.765196
C        1.424539      -0.630485      -1.481877
O        1.744529       2.229984      -1.717725
O        1.652406       3.441195      -2.465850
O        2.176389      -1.396535      -0.954169
H        2.561343       3.767011      -2.433752
H       -0.205238       2.400984      -1.081155
H        0.038342       1.465672      -2.581667
H        1.257648      -0.648497      -2.576007
H        1.065999       0.630716       0.198832
H       -0.385752      -0.013938      -0.589377
