12
94.30650966537905
C        0.906966       1.115710      -1.863107
C        0.194032       0.582527      -0.640756
C        1.616860      -0.352676      -1.710013
O        1.961791       2.030995      -1.980580
O        1.422592       3.310627      -2.358354
O        2.760838      -0.571198      -1.383467
H        2.226918       3.837127      -2.462240
H        0.789314       1.363925      -0.109269
H        0.300825       1.265215      -2.768043
H        1.103276      -1.200613      -2.164401
H       -0.389160      -0.212314      -0.212325
H       -0.489609       1.325908      -0.038767
12
94.2163836736836
C        0.907013       1.115527      -1.863280
C        0.194157       0.582670      -0.640818
C        1.616815      -0.352437      -1.710071
O        1.961733       2.030819      -1.980457
O        1.422589       3.310462      -2.358283
O        2.760686      -0.570794      -1.383302
H        2.226939       3.836974      -2.461985
H        0.789407       1.363845      -0.109291
H        0.300890       1.264871      -2.768290
H        1.103009      -1.200306      -2.164488
H       -0.388864      -0.212313      -0.212508
H       -0.489648       1.325950      -0.038624
