12
53.478568071197515
C        0.736654       1.620845      -1.271485
C        0.551148       0.157942      -1.597804
C        1.773650      -0.563518      -1.181916
O        1.059220       2.327421      -2.416777
O        1.454066       3.659356      -2.126002
O        2.740677      -0.031605      -0.694971
H        2.328268       3.739911      -2.519867
H        1.314403       1.777864      -0.386505
H       -0.687330       1.921132      -1.393641
H        1.746440      -1.655904      -1.357372
H        0.100335      -0.053144      -2.559836
H       -0.551124       0.025038      -1.013985
12
53.32733388290035
C        0.736877       1.620778      -1.271744
C        0.551450       0.157579      -1.597404
C        1.773344      -0.564242      -1.181121
O        1.059520       2.327593      -2.416907
O        1.453611       3.659641      -2.125883
O        2.740612      -0.032501      -0.694334
H        2.327698       3.740752      -2.519901
H        1.314367       1.778288      -0.386812
H       -0.686117       1.920499      -1.394019
H        1.745726      -1.656677      -1.356251
H        0.100586      -0.053841      -2.559420
H       -0.549987       0.025294      -1.013977
