12
0.0
C        0.469348       1.726826      -1.305065
C        0.417068       0.214013      -1.487555
C        1.738599      -0.444963      -1.196043
O        1.105222       2.233583      -2.462630
O        1.464105       3.585702      -2.281820
O        2.699083       0.093760      -0.729009
H        2.425172       3.562911      -2.157829
H        1.056442       1.979683      -0.412927
H       -0.537115       2.152404      -1.207842
H        1.750700      -1.522843      -1.451673
H        0.133598      -0.016494      -2.516465
H       -0.333321      -0.224981      -0.826942
12
-5.890431384614203e-05
C        0.469411       1.726832      -1.305066
C        0.417096       0.214016      -1.487572
C        1.738599      -0.445014      -1.196054
O        1.105270       2.233608      -2.462630
O        1.463994       3.585730      -2.281860
O        2.699072       0.093603      -0.728895
H        2.425049       3.563066      -2.157871
H        1.056511       1.979674      -0.412920
H       -0.537041       2.152423      -1.207843
H        1.750627      -1.522899      -1.451649
H        0.133623      -0.016476      -2.516479
H       -0.333310      -0.224962      -0.826960
