12
72.7179617626607
C        1.100443       1.448266      -1.220111
C        0.740721       0.141665      -1.350774
C        2.035030      -0.567544      -1.248345
O        1.049877       2.224320      -2.298928
O        1.424972       3.574278      -1.971318
O        3.047428      -0.285263      -0.660785
H        2.040194       3.836836      -2.657164
H        1.820609       1.778339      -0.469260
H       -1.288708       1.557358      -2.049048
H        2.004199      -1.505640      -1.847259
H        0.149293      -0.154356      -2.202330
H       -0.993679       1.492643      -1.317048
12
72.48903513068217
C        1.101819       1.447933      -1.220903
C        0.742026       0.141232      -1.350874
C        2.035406      -0.569248      -1.247941
O        1.049290       2.225566      -2.298763
O        1.423856       3.575210      -1.970521
O        3.047712      -0.287910      -0.659698
H        2.037643       3.839006      -2.657434
H        1.822302       1.777493      -0.470150
H       -1.289254       1.559377      -2.049330
H        2.003897      -1.506993      -1.847111
H        0.149952      -0.155110      -2.201756
H       -0.994481       1.494425      -1.318079
