12
39.18881482313736
C        1.535384       1.432703      -1.392245
C        1.155743       0.161296      -1.449193
C        2.069887      -0.926507      -1.113206
O        0.950354       2.445176      -2.055184
O        1.561076       3.686824      -1.740893
O        3.176291      -0.808214      -0.647419
H        1.285599       4.261035      -2.467635
H        2.464202       1.762739      -0.928955
H       -1.789919       1.494974      -2.309160
H        1.668000      -1.923065      -1.371588
H        0.277569      -0.180838      -1.979624
H       -1.055096       1.598606      -2.080691
12
39.11386397462229
C        1.536687       1.432221      -1.392903
C        1.155717       0.161247      -1.449357
C        2.070186      -0.925858      -1.113068
O        0.950569       2.443917      -2.054718
O        1.560887       3.685928      -1.740920
O        3.177113      -0.806752      -0.648671
H        1.283695       4.260244      -2.467122
H        2.465971       1.760002      -0.929165
H       -1.790346       1.496559      -2.309701
H        1.668166      -1.922839      -1.370024
H        0.276766      -0.179297      -1.978916
H       -1.055226       1.599409      -2.081061
