12
63.99945052421208
C        1.225815       1.464227      -1.217910
C        0.876376       0.180240      -1.335271
C        2.048625      -0.708383      -1.221786
O        1.063102       2.298000      -2.263203
O        1.419723       3.635587      -1.911134
O        3.094525      -0.507983      -0.659500
H        1.904980       3.969436      -2.669848
H        1.989035       1.832002      -0.529162
H       -1.380080       1.420734      -2.092129
H        1.897515      -1.644686      -1.790641
H        0.231123      -0.167981      -2.130315
H       -0.874897       1.526479      -1.527843
12
63.8309621408971
C        1.227163       1.463949      -1.219055
C        0.877382       0.180000      -1.335880
C        2.048770      -0.709432      -1.221234
O        1.062764       2.298818      -2.263150
O        1.419377       3.636110      -1.910359
O        3.094578      -0.509272      -0.658710
H        1.902772       3.971113      -2.669829
H        1.990992       1.830958      -0.530583
H       -1.381228       1.422023      -2.092152
H        1.897329      -1.645783      -1.789897
H        0.231318      -0.168241      -2.130123
H       -0.875479       1.527491      -1.527805
