12

H                    -3.04827000          -2.41308000          -0.26779000         
C                    -5.62963000          -0.54726000          -0.39632000         
C                    -6.57193000           0.23209000           0.46790000         
C                    -5.00221000          -1.63408000           0.07379000         
C                    -4.03650000          -2.41417000          -0.76695000         
H                    -5.45334000          -0.20657000          -1.41278000         
H                    -5.18003000          -1.96410000           1.09325000         
H                    -7.41332000          -0.41481000           0.79164000         
H                    -6.03413000           0.61484000           1.36162000         
H                    -6.97704000           1.09486000          -0.10147000         
H                    -3.91902000          -1.97668000          -1.78186000         
H                    -4.39112000          -3.45993000          -0.86466000         
