10

C                    -5.88260000          -0.62280000          -1.47139000         
C                    -6.44999000           0.20529000          -0.58989000         
C                    -5.46202000          -1.98414000          -1.07854000         
C                    -4.83656000          -2.78661000          -1.94088000         
H                    -5.71476000          -0.27605000          -2.48435000         
H                    -5.64636000          -2.33673000          -0.06597000         
H                    -6.62260000          -0.10011000           0.43926000         
H                    -6.73941000           1.20632000          -0.89245000         
H                    -4.62240000          -2.46364000          -2.95356000         
H                    -4.52291000          -3.77727000          -1.62789000         
