16

C                    -5.10546000           1.42180000          -2.27158000         
C                    -4.56310000           1.96978000          -3.36067000         
H                    -5.44288000           2.07812000          -1.47233000         
H                    -4.19345000           1.35180000          -4.17261000         
H                    -4.47317000           3.04912000          -3.43588000         
C                    -6.97530000          -0.08561000          -0.35464000         
C                    -7.49214000          -0.45373000           1.00323000         
C                    -5.75609000          -0.45753000          -0.77201000         
C                    -5.22180000          -0.07466000          -2.12720000         
H                    -7.61113000           0.50429000          -1.00456000         
H                    -5.11792000          -1.04909000          -0.11768000         
H                    -8.42033000          -1.05432000           0.88993000         
H                    -6.75340000          -1.04637000           1.58569000         
H                    -7.72603000           0.47257000           1.56971000         
H                    -5.87740000          -0.48444000          -2.92283000         
H                    -4.21125000          -0.52465000          -2.23814000         
