46

C                    -4.81197000          -0.65034000          -1.31143000         
C                    -4.46144000           0.59560000          -0.50337000         
C                    -4.34536000          -1.90840000          -0.63205000         
C                    -3.55179000          -2.78745000          -1.24827000         
Ga                   -2.50526000           0.96027000          -0.18525000         
H                    -4.38998000          -0.55710000          -2.33539000         
H                    -4.67583000          -2.11486000           0.38250000         
H                    -5.92031000          -0.69925000          -1.39639000         
H                    -4.93791000           0.53088000           0.49914000         
H                    -4.87516000           1.48948000          -1.01495000         
H                    -3.21828000          -2.62079000          -2.26612000         
H                    -3.24013000          -3.68981000          -0.73681000         
O                    -1.25920000           0.59310000          -1.39630000         
O                    -2.04820000           0.70700000           1.45770000         
Si                    1.82550000           2.65610000          -0.48160000         
Si                    2.60890000           0.05480000          -2.19810000         
Si                   -0.53720000          -0.70510000          -2.18580000         
Si                    2.00330000           0.88160000           2.26540000         
Si                    2.97410000          -1.70750000           0.51030000         
Si                   -0.07800000          -2.64840000           0.40210000         
Si                   -1.06330000          -0.22860000           2.40040000         
O                     2.62250000           1.59280000          -1.52890000         
O                     1.02710000          -0.28120000          -2.62760000         
O                     0.20580000           2.75740000          -0.94140000         
O                     2.00190000           2.04300000           1.06230000         
O                     3.09610000          -1.02330000          -1.00810000         
O                    -0.39730000          -1.97990000          -1.10340000         
O                     2.74760000          -0.48500000           1.63250000         
O                     1.60610000          -2.69090000           0.55860000         
O                    -0.72430000          -1.65390000           1.55990000         
O                     0.44730000           0.46560000           2.67910000         
O                    -1.42330000          -1.13010000          -3.55890000         
O                     3.57290000          -0.07540000          -3.56730000         
O                     4.37970000          -2.58460000           0.79210000         
O                    -0.70410000          -4.20240000           0.55980000         
O                     2.53750000           4.18220000          -0.47700000         
O                     2.81120000           1.44300000           3.63070000         
O                    -1.79620000          -0.53540000           3.89000000         
H                     3.40950000           2.20530000           3.62260000         
H                    -0.33810000           1.96310000          -1.21970000         
H                     2.53550000           4.77680000          -1.24180000         
H                     4.53270000          -0.20480000          -3.55030000         
H                    -1.02610000          -1.53110000          -4.34740000         
H                    -0.24380000          -5.00220000           0.26470000         
H                    -1.28970000          -0.73250000           4.69300000         
H                     4.60300000          -3.01260000           1.63180000         
