52

C                     4.69595000           1.39064000          -0.34004000         
C                     4.84808000           0.68210000           0.78890000         
C                     5.73620000           1.36154000          -1.41382000         
C                     3.68625000           0.47112000           1.69172000         
H                     3.76327000           1.90806000          -0.54793000         
H                     5.77790000           0.16807000           1.00834000         
H                     6.72234000           1.70442000          -1.03422000         
H                     5.40857000           2.03533000          -2.23551000         
H                     3.99664000          -0.11308000           2.58182000         
H                     3.23390000           1.43151000           2.01690000         
C                     5.77924000          -0.08299000          -1.94923000         
C                     6.68078000          -0.23608000          -3.15553000         
Ga                    2.52813000          -0.73904000           0.55301000         
H                     6.12568000          -0.77641000          -1.15165000         
H                     4.75002000          -0.38963000          -2.24992000         
H                     6.64771000          -1.29432000          -3.49166000         
H                     6.31678000           0.41038000          -3.98213000         
H                     7.72357000           0.03183000          -2.89319000         
O                     1.58500000          -1.75670000           1.55710000         
O                     1.60180000           0.21650000          -0.62940000         
Si                   -0.58720000           2.77190000           1.14840000         
Si                   -2.20640000           0.18270000           2.25630000         
Si                    0.00270000          -2.22590000           1.75960000         
Si                   -1.72880000           2.09610000          -1.77060000         
Si                   -3.51820000          -0.36850000          -0.66780000         
Si                   -1.14930000          -2.48620000          -1.27130000         
Si                    0.77330000           0.00000000          -2.07430000         
O                    -1.53840000           1.69180000           2.02020000         
O                    -1.00950000          -0.97330000           2.20350000         
O                     0.97920000           2.20350000           0.93060000         
O                    -1.32430000           2.92870000          -0.36890000         
O                    -3.24510000          -0.13040000           0.96910000         
O                    -0.58840000          -2.78290000           0.27290000         
O                    -2.95430000           1.00320000          -1.45900000         
O                    -2.62620000          -1.69080000          -1.16300000         
O                    -0.04510000          -1.47110000          -2.02290000         
O                    -0.37190000           1.21290000          -2.21490000         
O                    -0.18320000          -3.40770000           2.95740000         
O                    -3.02010000           0.20890000           3.72830000         
O                    -5.13160000          -0.66470000          -1.02530000         
O                    -1.30950000          -3.88740000          -2.18680000         
O                    -0.53020000           4.24610000           1.95780000         
O                    -2.23610000           3.15360000          -2.97370000         
O                     1.86690000          -0.00250000          -3.36270000         
H                     1.21880000           1.47470000           0.27520000         
H                    -1.14610000           4.47870000           2.66930000         
H                    -3.28650000          -0.58410000           4.21710000         
H                     0.38860000          -4.18710000           3.02650000         
H                    -2.14140000          -4.37510000          -2.28170000         
H                     1.63350000          -0.26170000          -4.26750000         
H                    -5.81660000           0.01740000          -1.08410000         
H                    -1.96430000           4.08190000          -3.02770000         
