52

C                     4.81339000           1.25458000          -1.59495000         
C                     3.77756000           0.28097000           1.64223000         
C                     5.72989000           2.15086000          -1.21738000         
C                     3.32578000           1.07237000           2.61423000         
H                     3.78291000           1.57641000          -1.70816000         
H                     4.84559000           0.18867000           1.47715000         
H                     6.76821000           1.86747000          -1.07978000         
H                     5.43853000           3.18086000          -1.03848000         
H                     4.02322000           1.62976000           3.23047000         
H                     2.26436000           1.15892000           2.81616000         
C                     5.15800000          -0.18944000          -1.84380000         
C                     6.12621000          -0.35685000          -3.00923000         
Ga                    2.55310000          -0.78371000           0.50041000         
H                     5.59687000          -0.63125000          -0.92299000         
H                     4.22784000          -0.74297000          -2.08985000         
H                     6.33064000          -1.43740000          -3.16338000         
H                     5.67830000           0.05755000          -3.93721000         
H                     7.08743000           0.15757000          -2.80232000         
O                     1.58500000          -1.75670000           1.55710000         
O                     1.60180000           0.21650000          -0.62940000         
Si                   -0.58720000           2.77190000           1.14840000         
Si                   -2.20640000           0.18270000           2.25630000         
Si                    0.00270000          -2.22590000           1.75960000         
Si                   -1.72880000           2.09610000          -1.77060000         
Si                   -3.51820000          -0.36850000          -0.66780000         
Si                   -1.14930000          -2.48620000          -1.27130000         
Si                    0.77330000           0.00000000          -2.07430000         
O                    -1.53840000           1.69180000           2.02020000         
O                    -1.00950000          -0.97330000           2.20350000         
O                     0.97920000           2.20350000           0.93060000         
O                    -1.32430000           2.92870000          -0.36890000         
O                    -3.24510000          -0.13040000           0.96910000         
O                    -0.58840000          -2.78290000           0.27290000         
O                    -2.95430000           1.00320000          -1.45900000         
O                    -2.62620000          -1.69080000          -1.16300000         
O                    -0.04510000          -1.47110000          -2.02290000         
O                    -0.37190000           1.21290000          -2.21490000         
O                    -0.18320000          -3.40770000           2.95740000         
O                    -3.02010000           0.20890000           3.72830000         
O                    -5.13160000          -0.66470000          -1.02530000         
O                    -1.30950000          -3.88740000          -2.18680000         
O                    -0.53020000           4.24610000           1.95780000         
O                    -2.23610000           3.15360000          -2.97370000         
O                     1.86690000          -0.00250000          -3.36270000         
H                     1.21880000           1.47470000           0.27520000         
H                    -1.14610000           4.47870000           2.66930000         
H                    -3.28650000          -0.58410000           4.21710000         
H                     0.38860000          -4.18710000           3.02650000         
H                    -2.14140000          -4.37510000          -2.28170000         
H                     1.63350000          -0.26170000          -4.26750000         
H                    -5.81660000           0.01740000          -1.08410000         
H                    -1.96430000           4.08190000          -3.02770000         
