12

C                    -4.40998000          -2.52784000          -0.45262000         
C                    -4.92690000           0.67065000          -2.58432000         
C                    -4.31433000          -1.49798000          -1.54039000         
C                    -5.04461000          -0.37430000          -1.51506000         
H                    -3.61751000          -1.68089000          -2.35284000         
H                    -5.73581000          -0.18837000          -0.69764000         
H                    -5.13740000          -2.23382000           0.33457000         
H                    -4.72759000          -3.49617000          -0.88996000         
H                    -3.41270000          -2.65341000           0.01836000         
H                    -5.91478000           0.81759000          -3.06678000         
H                    -4.60305000           1.62794000          -2.12392000         
H                    -4.18705000           0.38637000          -3.36209000         
