8

H                    -5.11250000           1.54688000           1.40875000         
C                    -4.88579000           2.53921000           1.85278000         
C                    -5.25001000           2.53099000           3.32524000         
H                    -3.80308000           2.75856000           1.74079000         
H                    -5.46956000           3.31677000           1.31824000         
H                    -5.02483000           3.52134000           3.77331000         
H                    -6.33213000           2.31304000           3.44299000         
H                    -4.66028000           1.75080000           3.85102000         
