12

H                     5.50190000          -1.06750000           0.85119000         
C                     5.67892000          -0.31274000           1.64692000         
C                     6.34193000           0.92867000           1.05999000         
C                     5.48141000           1.57110000           0.00569000         
C                     5.88507000           2.67179000          -0.63135000         
H                     4.71455000          -0.04302000           2.12740000         
H                     6.34072000          -0.76213000           2.41693000         
H                     7.31498000           0.63697000           0.61068000         
H                     6.52610000           1.65768000           1.87848000         
H                     4.51806000           1.14721000          -0.25412000         
H                     5.25385000           3.12340000          -1.39023000         
H                     6.84292000           3.12856000          -0.40258000         
