9
0.0
C       -2.440748      -0.399321       1.155211
C       -1.244040       0.497956       1.246326
C       -0.043992       0.090721       1.615324
H       -1.403759       1.536456       0.988069
H       -2.652590      -0.851705       2.123379
H       -3.319857       0.150912       0.831357
H       -2.258166      -1.207631       0.447982
H        0.796395       0.761252       1.670563
H        0.148167      -0.937050       1.878790
9
-1.7953045244212262e-05
C       -2.440729      -0.399311       1.155214
C       -1.244058       0.497959       1.246320
C       -0.044005       0.090707       1.615323
H       -1.403772       1.536443       0.988068
H       -2.652556      -0.851685       2.123360
H       -3.319835       0.150892       0.831367
H       -2.258143      -1.207602       0.448004
H        0.796370       0.761232       1.670561
H        0.148137      -0.937046       1.878783
