9
124.30944015283785
C       -2.456245      -0.595578       1.227824
C       -0.988377      -0.453124       1.505486
C        0.271211      -0.687599       1.782299
H       -0.498887       0.590177       1.695753
H       -2.933078      -1.069148       2.125483
H       -2.937016       0.366615       1.023118
H       -2.612105      -1.246566       0.357318
H       -0.191929       1.788656       1.509416
H        1.128477      -1.079449       2.307784
9
124.21799610886774
C       -2.456123      -0.595418       1.228187
C       -0.988406      -0.453186       1.505492
C        0.270953      -0.688005       1.782052
H       -0.498680       0.590381       1.695604
H       -2.932843      -1.068902       2.125720
H       -2.936598       0.366801       1.023517
H       -2.612172      -1.246341       0.357754
H       -0.191519       1.788613       1.509370
H        1.128043      -1.080040       2.307328
