54

C                    -3.11225000           0.75440000           1.99106000         
C                    -3.49320000          -0.15121000           3.15108000         
H                    -3.99189000           1.35577000           1.68015000         
H                    -2.31116000           1.43926000           2.33266000         
H                    -2.61134000          -0.74139000           3.47976000         
H                    -3.84574000           0.46533000           4.00434000         
C                    -5.49450000          -0.68519000          -1.23312000         
C                    -5.33434000           0.75780000          -1.63068000         
C                    -6.36151000          -1.07339000          -0.29207000         
C                    -6.60825000           1.32252000          -2.25234000         
Ga                   -2.47247000          -0.31358000           0.40600000         
H                    -4.87027000          -1.43244000          -1.71251000         
H                    -5.05174000           1.36148000          -0.74085000         
H                    -4.51506000           0.83308000          -2.37744000         
H                    -4.30700000          -0.84306000           2.84565000         
H                    -6.43801000          -2.12267000          -0.02544000         
H                    -6.99216000          -0.35491000           0.22123000         
H                    -6.88168000           0.73776000          -3.15643000         
H                    -7.44900000           1.29101000          -1.52800000         
H                    -6.43907000           2.37928000          -2.54866000         
O                    -1.36860000           0.63540000          -0.61580000         
O                    -1.83630000          -1.83050000           0.97050000         
Si                    0.90290000           2.66300000           1.39720000         
Si                    2.26510000           2.10360000          -1.44720000         
Si                   -0.51040000           0.46110000          -2.04960000         
Si                    1.89660000          -0.32670000           2.28230000         
Si                    3.55350000          -0.67160000          -0.53510000         
Si                    1.04230000          -2.36250000          -1.62470000         
Si                   -0.34550000          -2.50060000           1.29760000         
O                     1.92070000           2.77780000           0.04790000         
O                     0.83040000           1.46020000          -2.01560000         
O                    -0.70770000           2.68860000           0.89740000         
O                     1.25520000           1.21180000           2.15410000         
O                     3.37630000           0.84900000          -1.24280000         
O                     0.06240000          -1.11580000          -2.16420000         
O                     2.97790000          -0.54710000           1.03020000         
O                     2.59320000          -1.75760000          -1.36990000         
O                     0.42840000          -2.88090000          -0.15790000         
O                     0.62800000          -1.39540000           2.09760000         
O                    -1.54450000           0.82210000          -3.33340000         
O                     2.87330000           3.22630000          -2.53870000         
O                     5.14510000          -1.20320000          -0.59040000         
O                     1.08600000          -3.58460000          -2.77750000         
O                     1.20800000           3.90440000           2.49200000         
O                     2.74010000          -0.55850000           3.71880000         
O                    -0.43760000          -3.86950000           2.28260000         
H                     2.34520000          -0.55920000           4.60290000         
H                    -1.06450000           1.98510000           0.27700000         
H                     1.15510000           4.84610000           2.27170000         
H                     3.81160000           3.31070000          -2.76410000         
H                    -1.28170000           0.83880000          -4.26620000         
H                     1.87730000          -4.10590000          -2.97960000         
H                    -0.86160000          -4.69840000           2.01440000         
H                     5.81470000          -1.00420000           0.08070000         
