54

C                    -3.39427000           2.24473000           3.11435000         
C                    -2.68740000           1.22799000           3.60150000         
H                    -4.47896000           2.21625000           3.13577000         
H                    -2.89186000           3.10576000           2.68632000         
H                    -3.19270000           0.36480000           4.02307000         
H                    -1.60287000           1.25259000           3.57442000         
C                    -5.42785000          -1.21805000          -1.27257000         
C                    -5.07022000           0.23821000          -0.95817000         
C                    -6.34700000          -1.83846000          -0.22195000         
C                    -4.31211000           0.42467000           0.36204000         
Ga                   -2.45175000          -0.32528000           0.33736000         
H                    -4.50810000          -1.83349000          -1.37507000         
H                    -4.45357000           0.64630000          -1.79125000         
H                    -6.00978000           0.83147000          -0.91775000         
H                    -7.27252000          -1.23062000          -0.11240000         
H                    -5.83521000          -1.90715000           0.75947000         
H                    -6.62743000          -2.86750000          -0.53109000         
H                    -5.95788000          -1.23816000          -2.25231000         
H                    -4.89061000           0.07152000           1.23462000         
H                    -4.15369000           1.51794000           0.49119000         
O                    -1.36860000           0.63540000          -0.61580000         
O                    -1.83630000          -1.83050000           0.97050000         
Si                    0.90290000           2.66300000           1.39720000         
Si                    2.26510000           2.10360000          -1.44720000         
Si                   -0.51040000           0.46110000          -2.04960000         
Si                    1.89660000          -0.32670000           2.28230000         
Si                    3.55350000          -0.67160000          -0.53510000         
Si                    1.04230000          -2.36250000          -1.62470000         
Si                   -0.34550000          -2.50060000           1.29760000         
O                     1.92070000           2.77780000           0.04790000         
O                     0.83040000           1.46020000          -2.01560000         
O                    -0.70770000           2.68860000           0.89740000         
O                     1.25520000           1.21180000           2.15410000         
O                     3.37630000           0.84900000          -1.24280000         
O                     0.06240000          -1.11580000          -2.16420000         
O                     2.97790000          -0.54710000           1.03020000         
O                     2.59320000          -1.75760000          -1.36990000         
O                     0.42840000          -2.88090000          -0.15790000         
O                     0.62800000          -1.39540000           2.09760000         
O                    -1.54450000           0.82210000          -3.33340000         
O                     2.87330000           3.22630000          -2.53870000         
O                     5.14510000          -1.20320000          -0.59040000         
O                     1.08600000          -3.58460000          -2.77750000         
O                     1.20800000           3.90440000           2.49200000         
O                     2.74010000          -0.55850000           3.71880000         
O                    -0.43760000          -3.86950000           2.28260000         
H                     2.34520000          -0.55920000           4.60290000         
H                    -1.06450000           1.98510000           0.27700000         
H                     1.15510000           4.84610000           2.27170000         
H                     3.81160000           3.31070000          -2.76410000         
H                    -1.28170000           0.83880000          -4.26620000         
H                     1.87730000          -4.10590000          -2.97960000         
H                    -0.86160000          -4.69840000           2.01440000         
H                     5.81470000          -1.00420000           0.08070000         
