54

C          3.76166        2.19966        0.56214
C          4.76736        1.39852        1.39875
H          3.09243        2.78255        1.20968
H          4.25935        2.90832       -0.10931
H          4.25904        0.70284        2.07514
H          5.40074        2.05818        2.00658
C          3.70507       -0.18055       -2.01609
C          4.66287       -0.76521       -1.23787
C          4.46213       -1.98922       -0.38506
H          5.35026       -2.23670        0.23381
Ga         2.52195        1.10581       -0.49633
H          3.97723        0.63283       -2.68486
H          2.77516       -0.71714       -2.22556
H          5.44641        0.81551        0.76390
C          6.08932       -0.26041       -1.37684
H          4.23804       -2.83676       -1.05030
H          3.54902       -1.84274        0.20639
H          1.30697       -1.36017       -0.74453
Si        -0.50705       -2.46733       -1.73386
Si        -2.43785        0.14582       -2.12120
Si        -0.32390        2.52259       -1.33526
Si        -1.38885       -2.54327        1.38285
Si        -3.43683       -0.06705        0.97830
Si        -1.14984        2.05252        1.80788
Si         0.97091       -0.37904        1.93056
O         -1.55154       -1.25640       -2.24930
O         -1.41781        1.46372       -2.05304
O          1.24109        1.96004       -1.49051
O          1.07272       -1.91603       -1.55009
O         -1.06735       -2.95055       -0.21125
O         -3.28641        0.10161       -0.67130
O         -0.76513        2.61406        0.28554
O          1.61887       -0.26778        0.38597
O         -2.69860       -1.50243        1.44739
O         -2.59161        1.19107        1.70658
O          0.07062        0.99991        2.27346
O         -0.06184       -1.69651        1.96985
O         -0.54576        4.07919       -1.96399
O         -3.47955        0.20721       -3.44162
O         -5.06573       -0.05506        1.38626
O         -1.24360        3.26737        2.96554
O         -0.54309       -3.73837       -2.83604
O         -1.69819       -3.91351        2.30433
O          2.24150       -0.51704        3.03585
H         -1.19437       -3.79406       -3.55188
H         -4.20392        0.84368       -3.53483
H         -0.23546        4.34895       -2.84157
H         -1.82622        4.03899        2.90705
H          2.12875       -0.46051        3.99732
H         -5.42516       -0.38840        2.22160
H         -1.55300       -4.81813        1.98950
H          6.14996        0.73232       -1.87153
H          6.63535       -0.98653       -2.01361
H          6.66876       -0.26668       -0.43389
