12

C                     1.45805000           1.56323000          -2.29031000         
C                     0.92828000           0.77480000          -1.35666000         
C                     1.26489000           1.08896000           0.07772000         
O                     2.17618000           2.63049000          -1.86936000         
O                     2.03890000           3.05056000          -0.64008000         
O                     2.33331000           2.02121000           0.14942000         
H                     0.37262000           1.43840000           0.63957000         
H                    -0.46110000          -0.59489000          -4.22184000         
H                     1.30365000           1.37647000          -3.34771000         
H                     1.62775000           0.14928000           0.54356000         
H                     0.29294000          -0.06523000          -1.61852000         
H                    -0.94597000          -0.09329000          -4.10138000         
