12

C                     0.99739000           1.93881000          -2.61179000         
C                     0.26940000           1.36792000          -1.65384000         
C                     0.89711000           1.25852000          -0.28880000         
O                     2.19785000           2.45393000          -2.25767000         
O                     2.44490000           2.69516000          -0.99788000         
O                     2.28657000           1.54345000          -0.35130000         
H                     0.37624000           1.90063000           0.45296000         
H                     1.44531000          -1.41581000          -2.42431000         
H                     0.63742000           2.01229000          -3.63245000         
H                     0.80150000           0.20070000           0.03287000         
H                     0.76237000          -1.60057000          -2.45113000         
H                    -0.72655000           0.98498000          -1.85226000         
