12

C                     1.42415000           1.01660000          -2.79993000         
C                     1.08516000           0.13244000          -1.62826000         
C                     1.50022000           0.53188000          -0.42742000         
O                     2.38591000           1.99308000          -2.42949000         
O                     1.95955000           2.59583000          -1.32294000         
O                     2.10855000           1.73842000          -0.34874000         
H                    -1.24139000           2.01650000          -0.17363000         
H                     1.89998000           0.37411000          -3.56968000         
H                     0.51458000           1.47813000          -3.23993000         
H                     1.33772000          -0.07044000           0.46006000         
H                     0.53791000          -0.79583000          -1.75802000         
H                    -1.12284000           2.32928000          -0.79762000         
