12

C                     1.33060000           1.30271000          -2.66224000         
C                     0.23286000           1.39116000          -1.63425000         
C                     0.55855000           1.88389000          -0.44059000         
O                     2.59947000           1.51038000          -2.06010000         
O                     2.53790000           2.62544000          -1.33748000         
O                     1.81994000           2.34787000          -0.28188000         
H                    -0.16162000           1.93575000           0.36913000         
H                     1.32912000           0.26513000          -3.05608000         
H                     1.15500000           2.00060000          -3.50840000         
H                     1.20298000          -1.39514000          -0.67051000         
H                     0.56041000          -1.58199000          -0.90175000         
H                    -0.77572000           1.05421000          -1.85145000         
