12

C                     1.22095000           0.80136000          -2.58592000         
C                     0.02952000           1.55222000          -2.03112000         
C                     1.85153000           0.83555000          -0.27168000         
O                     2.25285000           0.63100000          -1.62451000         
O                     0.59881000           2.51724000          -1.19320000         
O                     0.90978000           1.89423000          -0.05643000         
H                     1.41826000          -0.11157000           0.11386000         
H                     0.91232000          -0.16423000          -3.03911000         
H                     1.65755000           1.44012000          -3.38373000         
H                     2.76152000           1.06523000           0.31964000         
H                    -0.63730000           0.87330000          -1.44713000         
H                    -0.58630000           2.00554000          -2.83627000         
