12

C                     0.76982000           0.28327000          -2.69688000         
C                     0.82250000           1.45847000          -1.72394000         
C                     1.08684000           1.05742000          -0.33307000         
O                     1.90457000           2.28237000          -1.94597000         
O                     1.99539000           2.99527000          -0.81917000         
O                     1.60623000           2.22749000           0.21172000         
H                     0.16578000           0.70657000           0.17913000         
H                     1.71099000          -0.30607000          -2.65504000         
H                     0.63518000           0.66265000          -3.73169000         
H                     1.88715000           0.28558000          -0.27881000         
H                    -0.08551000          -0.37918000          -2.44548000         
H                    -0.10945000           2.06616000          -1.79641000         
