12

C                     1.35072000           1.07158000          -1.88370000         
C                     0.04248000           0.43331000          -2.34187000         
C                     1.47511000           1.15135000          -0.41706000         
O                     1.45510000           2.40492000          -2.27221000         
O                     1.93484000           3.07282000          -1.21288000         
O                     2.38268000           2.18418000          -0.32159000         
H                     0.52981000           1.47364000           0.07764000         
H                    -0.00280000           0.43211000          -3.45129000         
H                     2.22589000           0.52728000          -2.30532000         
H                     1.84129000           0.20009000           0.02502000         
H                    -0.01794000          -0.61519000          -1.98054000         
H                    -0.82769000           1.00390000          -1.95180000         
