12

C                     1.28290000           1.20526000          -2.70722000         
C                     1.33902000           0.60966000          -1.36308000         
C                     0.10265000           0.91484000          -0.50558000         
O                     1.68141000           2.51508000          -2.47233000         
O                     2.35118000           2.51486000          -1.30826000         
O                     2.44629000           1.25982000          -0.85196000         
H                    -0.07600000           2.00830000          -0.42131000         
H                     2.05067000           0.73773000          -3.36319000         
H                     0.27884000           1.12516000          -3.17649000         
H                     0.24637000           0.49934000           0.51416000         
H                     1.48167000          -0.49100000          -1.42475000         
H                    -0.79550000           0.44097000          -0.95558000         
