12

C                     0.53558000           0.98203000          -2.78139000         
C                     1.37479000           0.61545000          -1.54915000         
C                     0.82273000           1.13329000          -0.28749000         
O                     2.58471000           1.28261000          -1.58035000         
O                     2.31394000           2.51035000          -1.12031000         
O                     1.26494000           2.45016000          -0.28388000         
H                    -0.28252000           1.03702000          -0.22476000         
H                     1.04806000           0.62438000          -3.69933000         
H                     0.38755000           2.08028000          -2.86261000         
H                     1.30149000           0.62052000           0.57634000         
H                     1.49767000          -0.48833000          -1.50261000         
H                    -0.45945000           0.49224000          -2.72006000         
