12

C                     1.79337000           1.10819000          -2.29451000         
C                    -0.08394000           0.48259000          -1.03551000         
C                     1.32374000           1.03844000          -0.84914000         
O                     2.59716000           2.20540000          -2.32109000         
O                     1.90462000           3.06625000          -1.59579000         
O                     1.53573000           2.41915000          -0.49902000         
H                     0.95264000           1.02584000           0.20592000         
H                     2.35165000           0.16293000          -2.54036000         
H                     1.00329000           1.23625000          -3.07732000         
H                     0.11266000          -0.57363000          -0.69331000         
H                    -0.35295000          -0.13195000          -1.92249000         
H                    -0.74846000           1.30054000          -1.41298000         
