47

C                     5.55269000          -6.76276000           0.13203000         
C                     4.69741000          -6.87432000           1.44417000         
C                     4.61557000          -5.58014000           2.29264000         
H                     5.21618000          -7.57099000           2.14147000         
H                     3.70928000          -7.34161000           1.24361000         
C                     3.94786000          -4.43077000           1.59211000         
H                     5.65461000          -5.26791000           2.52772000         
H                     4.11629000          -5.81602000           3.25611000         
C                     6.50830000          -7.97121000           0.04780000         
H                     7.17117000          -8.01135000           0.93834000         
H                     7.16288000          -7.89111000          -0.84732000         
H                     5.93689000          -8.92299000          -0.01455000         
C                     4.73169000          -6.76115000          -1.19471000         
H                     6.21050000          -5.86748000           0.19098000         
C                     3.73519000          -5.65040000          -1.40977000         
H                     4.15950000          -7.71173000          -1.25113000         
H                     5.45321000          -6.75813000          -2.04309000         
C                     3.78185000          -4.84240000          -2.48763000         
C                     2.73986000          -3.81316000          -2.70540000         
C                     2.94615000          -3.64990000           2.07698000         
C                     2.40042000          -2.57004000           1.18815000         
C                     2.41487000          -3.84478000           3.48457000         
H                     1.63518000          -3.10696000           3.75680000         
H                     3.24717000          -3.71115000           4.21012000         
H                     1.98104000          -4.85781000           3.60908000         
O                     2.88128000          -2.44963000           0.06789000         
C                     1.27584000          -1.63689000           1.61264000         
C                     0.78094000          -0.67456000           0.54592000         
H                     1.63271000          -1.04194000           2.48080000         
H                     0.40318000          -2.24707000           1.93027000         
S                    -0.51864000           0.50629000           0.96438000         
C                    -0.83208000           1.10369000          -0.73479000         
H                     0.09958000           1.50224000          -1.19010000         
H                    -1.55185000           1.94554000          -0.68873000         
H                    -1.27655000           0.29646000          -1.35426000         
O                     1.24245000          -0.68725000          -0.58706000         
C                     2.70398000          -3.04717000          -3.80682000         
C                     1.62588000          -2.04690000          -3.98056000         
C                     1.51599000          -1.31048000          -5.08906000         
H                     4.35333000          -4.21289000           0.61522000         
H                     0.89379000          -1.90515000          -3.19025000         
H                     2.21444000          -1.41759000          -5.91294000         
H                     0.70768000          -0.59025000          -5.17867000         
H                     1.96506000          -3.69186000          -1.95481000         
H                     3.45708000          -3.16590000          -4.58320000         
H                     2.92523000          -5.54243000          -0.69592000         
H                     4.57101000          -4.96044000          -3.22728000         
