56

C                     0.95055209          -3.04641937           0.11211978         
C                     1.51381141          -4.46563095           0.00027535         
C                    -0.54656435          -3.03841517          -0.09741275         
O                    -1.01079710          -3.53064305          -1.11808582         
O                     0.56510790          -0.33891210           0.01133176         
O                     1.33119236          -1.75251221          -3.82401238         
N                     1.48492572          -2.16265798          -0.91550041         
C                     1.12810137          -0.83983307          -0.94981370         
C                     1.40449817           0.02916548          -2.15269328         
C                     0.82846873          -0.48686223          -3.48970305         
N                     0.98012003           1.41416214          -1.94300621         
N                    -1.31767437          -2.27220466           0.71502182         
C                    -2.65341736          -1.84513094           0.35059805         
C                    -3.60827809          -2.09455501           1.52266838         
C                    -2.55553517          -0.37953729          -0.05822220         
O                    -3.15134846           0.46813140           0.59318894         
N                    -1.80620298          -0.02015182          -1.15594784         
O                    -0.28033234           3.21481014          -1.72595421         
O                    -0.37250415           2.69137356           1.26580693         
C                    -1.68048037           1.36089609          -1.62309611         
C                    -0.26535500           1.99106698          -1.76164285         
C                    -2.47747780           1.54641498          -2.91567819         
H                     1.22701277          -2.64223257           1.11215221         
H                     1.29204598          -4.90223105          -0.99733910         
H                     1.06704617          -5.11344293           0.78451183         
H                     2.61490933          -4.44536622           0.14239276         
H                     0.64067067          -2.41786002          -3.56543744         
H                     2.05675654          -2.56426869          -1.67170411         
H                     2.51200258           0.02552470          -2.27407544         
H                     1.13543960           0.21220947          -4.29657330         
H                    -0.27623977          -0.48790548          -3.51405124         
H                    -1.08920824           2.06137323           1.39666513         
H                     1.76662843           2.08340449          -1.98631299         
H                    -0.88308201          -1.82109683           1.53343431         
H                    -3.04625987          -2.40458154          -0.52677318         
H                    -4.63444850          -1.76212510           1.25685470         
H                    -3.27238451          -1.54357496           2.42750501         
H                    -3.63992713          -3.17983605           1.75709934         
H                    -1.38195211          -0.77383793          -1.70695573         
H                    -2.19515409           2.01361481          -0.88356989         
H                    -2.49698564           2.61780056          -3.21045975         
H                    -3.52777653           1.21922192          -2.75373256         
H                    -2.04486703           0.95344964          -3.74464786         
C                     0.87269672           2.56311938           1.77238900         
C                     1.26774325           1.46513863           2.58370582         
C                     1.79724691           3.57155989           1.47158075         
C                     2.59098682           1.42367328           3.06723692         
C                     3.49684600           2.44048201           2.76013383         
C                     3.10092078           3.51255739           1.96326042         
H                     1.50073309           4.40944584           0.85259408         
H                     4.50848306           2.39650851           3.14228067         
H                     3.80473586           4.30003801           1.72670439         
H                     2.92877055           0.60363344           3.68856272         
C                     0.33459362           0.36393521           2.93943587         
O                     0.70705632          -0.57557395           3.62520385         
H                    -0.69093635           0.35730109           2.59765765         
