12
13.679763857615399
C        1.426635       1.467509      -2.218692
C        0.576438       0.653770      -1.079825
C        1.364944      -0.621291      -0.938905
O        0.649463       2.579686      -2.509398
O        0.622013       3.295460      -1.206618
O        2.377734      -0.901208      -1.516411
H        0.519625       4.139046      -1.667707
H        2.383960       1.723393      -1.767859
H        1.530678       0.824493      -3.087458
H        0.908687      -1.337348      -0.217939
H       -0.419357       0.417505      -1.436773
H        0.530835       1.044555      -0.077167
12
12.999221707057586
C        1.425368       1.464664      -2.213099
C        0.579225       0.656565      -1.081773
C        1.364906      -0.621260      -0.941400
O        0.649832       2.581795      -2.506050
O        0.622028       3.295197      -1.210229
O        2.376951      -0.903154      -1.519118
H        0.518706       4.139049      -1.671564
H        2.381628       1.721039      -1.761051
H        1.529126       0.818954      -3.079639
H        0.907457      -1.336719      -0.220566
H       -0.416567       0.421543      -1.439391
H        0.535171       1.045873      -0.078929
