12
1.163189631595742
C        1.909148       1.672192      -2.938638
C        0.212524       0.964127      -0.564545
C        1.110870      -0.157876      -0.871103
O        0.884137       2.312862      -3.052839
O        0.535983       2.369204      -0.640263
O        2.064606      -0.164169      -1.604828
H        0.535878       2.828738      -1.500268
H        2.733930       1.966301      -2.280324
H        2.189454       0.953704      -3.724735
H        0.799433      -1.072381      -0.333763
H       -0.793767       0.785399      -0.929443
H        0.172512       1.023812       0.529850
12
0.6236108452685585
C        1.914623       1.669978      -2.943508
C        0.209359       0.968950      -0.564026
C        1.109128      -0.154289      -0.869098
O        0.893154       2.316096      -3.054847
O        0.536082       2.366315      -0.636125
O        2.062746      -0.160603      -1.603038
H        0.537007       2.827287      -1.492890
H        2.741156       1.954493      -2.283037
H        2.187303       0.947619      -3.728514
H        0.797111      -1.068300      -0.331585
H       -0.796495       0.792461      -0.934942
H        0.162112       1.027509       0.531679
