12
124.54380596790725
C        1.623587       1.588863      -2.530125
C        0.440477       0.776944      -0.885658
C        1.280079      -0.448902      -0.920224
O        0.739608       2.456480      -2.775806
O        0.561743       2.997961      -0.932063
O        2.288247      -0.709125      -1.507215
H        0.481084       3.735804      -1.528581
H        2.517982       1.851787      -1.965873
H        1.797691       0.844049      -3.313104
H        0.833573      -1.221186      -0.249908
H       -0.557801       0.576285      -1.250642
H        0.419598       1.043395       0.168808
12
124.10431449084354
C        1.625305       1.595016      -2.541856
C        0.441021       0.783043      -0.883316
C        1.276827      -0.443739      -0.924186
O        0.743580       2.455639      -2.789784
O        0.550434       2.999941      -0.925924
O        2.285431      -0.711071      -1.506666
H        0.468400       3.740114      -1.523365
H        2.515696       1.854237      -1.969020
H        1.800669       0.842740      -3.317586
H        0.823417      -1.215047      -0.254754
H       -0.557949       0.589120      -1.249824
H        0.422090       1.052094       0.170376
12
120.88524097817208
C        1.617488       1.592570      -2.547791
C        0.454155       0.770686      -0.887155
C        1.283674      -0.458226      -0.923449
O        0.751508       2.442380      -2.803627
O        0.546147       3.034338      -0.918475
O        2.295252      -0.744086      -1.491165
H        0.460320       3.787309      -1.508539
H        2.500760       1.839860      -1.961109
H        1.792427       0.832971      -3.319151
H        0.816106      -1.221015      -0.250077
H       -0.544901       0.584843      -1.257995
H        0.434518       1.057775       0.160764
