12
65.25333293288531
C        1.533731       1.518701      -2.344370
C        0.512789       0.738648      -0.980460
C        1.327960      -0.528729      -0.946267
O        0.677703       2.514045      -2.612660
O        0.604751       3.120169      -1.079851
O        2.333177      -0.793906      -1.541344
H        0.510580       3.902867      -1.633281
H        2.451562       1.795206      -1.834179
H        1.665913       0.784946      -3.132114
H        0.884859      -1.284601      -0.253661
H       -0.482772       0.522411      -1.342033
H        0.495315       1.021161       0.058644
12
64.3063395983736
C        1.531966       1.519583      -2.342321
C        0.515405       0.744471      -0.983081
C        1.326500      -0.526349      -0.949706
O        0.676963       2.517915      -2.611820
O        0.600749       3.121089      -1.082392
O        2.332409      -0.794237      -1.542261
H        0.505836       3.904529      -1.635762
H        2.449155       1.794592      -1.830222
H        1.662952       0.781581      -3.125857
H        0.879493      -1.281463      -0.258294
H       -0.480670       0.531413      -1.345333
H        0.499316       1.026941       0.055845
