46

C                     5.37524000           0.75617000          -0.21738000         
C                     4.17598000           0.47281000          -1.12077000         
H                     6.11961000           1.35418000          -0.78481000         
H                     5.03776000           1.36164000           0.65269000         
H                     3.74366000           1.43580000          -1.46599000         
H                     4.49248000          -0.10777000          -2.01345000         
C                     6.03712000          -0.52172000           0.22471000         
C                     6.14908000          -0.85111000           1.51477000         
Ga                    2.70432000          -0.52320000          -0.17783000         
H                     6.43419000          -1.19535000          -0.52920000         
H                     5.76261000          -0.20399000           2.29606000         
H                     6.63120000          -1.78152000           1.79612000         
O                     1.43670000          -0.86520000          -1.35440000         
O                     2.20580000           0.41190000           1.21740000         
Si                   -1.02900000          -2.86380000           0.50480000         
Si                   -2.45120000          -1.14960000          -1.85460000         
Si                    0.51280000           0.09970000          -2.36200000         
Si                   -1.54400000          -0.30230000           2.50640000         
Si                   -3.12020000           1.28520000           0.13570000         
Si                   -0.30570000           2.71090000          -0.58510000         
Si                    1.16660000           1.42410000           1.99160000         
O                    -2.04060000          -2.32760000          -0.74030000         
O                    -1.02650000          -0.54280000          -2.48890000         
O                     0.53450000          -3.01370000          -0.11490000         
O                    -1.15780000          -1.72120000           1.71560000         
O                    -3.25430000           0.08360000          -1.03380000         
O                     0.36250000           1.62730000          -1.67280000         
O                    -2.62790000           0.55400000           1.55970000         
O                    -1.92930000           2.34810000          -0.36270000         
O                     0.48990000           2.50200000           0.86960000         
O                    -0.15140000           0.60910000           2.65940000         
O                     1.29920000           0.21460000          -3.85230000         
O                    -3.38810000          -1.72980000          -3.12130000         
O                    -4.55620000           2.13080000           0.34110000         
O                    -0.12180000           4.26070000          -1.21240000         
O                    -1.52810000          -4.33370000           1.16010000         
O                    -2.27710000          -0.59210000           3.99300000         
O                     1.97890000           2.27340000           3.20380000         
H                    -2.05030000          -1.33190000           4.57600000         
H                     0.87240000          -2.35750000          -0.78580000         
H                    -1.28890000          -5.18980000           0.77400000         
H                    -4.34430000          -1.87600000          -3.07950000         
H                     0.90230000           0.58300000          -4.65630000         
H                    -0.69730000           5.00850000          -0.99280000         
H                     1.51900000           2.75950000           3.90530000         
H                    -5.25040000           1.88470000           0.97040000         
