12
0.0
C        1.559955       1.416672      -2.057625
C        0.532161       0.582295      -1.291866
C        1.095627      -0.714102      -0.799478
O        1.022240       2.606230      -2.569305
O        0.676035       3.479284      -1.491304
O        2.217528      -1.099318      -0.968467
H        0.769874       4.352406      -1.893193
H        2.422714       1.626648      -1.413707
H        1.901157       0.888719      -2.951224
H        0.358782      -1.323363      -0.238568
H       -0.332615       0.370437      -1.926556
H        0.165542       1.153593      -0.434407
12
-1.3485177987604402e-05
C        1.559928       1.416668      -2.057635
C        0.532139       0.582280      -1.291881
C        1.095628      -0.714097      -0.799466
O        1.022216       2.606241      -2.569307
O        0.676080       3.479313      -1.491284
O        2.217541      -1.099282      -0.968422
H        0.769987       4.352399      -1.893177
H        2.422680       1.626647      -1.413714
H        1.901136       0.888720      -2.951232
H        0.358791      -1.323372      -0.238564
H       -0.332620       0.370401      -1.926582
H        0.165493       1.153581      -0.434436
