12
17.053764320062328
C        1.451194       1.459878      -2.380527
C        0.511443       0.516657      -1.633451
C        0.947974      -0.554298      -0.681465
O        0.872613       2.721296      -2.563013
O        0.813493       3.399818      -1.304605
O        2.059195      -0.744892      -0.244479
H        0.621797       4.306372      -1.574247
H        2.407752       1.547470      -1.848010
H        1.648039       1.124607      -3.405579
H        0.113006      -1.209820      -0.377201
H       -0.318596       0.112994      -2.192486
H        0.463518       1.188365      -0.720240
12
16.38606578240615
C        1.447452       1.459030      -2.383079
C        0.506463       0.517503      -1.632379
C        0.954833      -0.551070      -0.682716
O        0.871293       2.722065      -2.562526
O        0.817593       3.399120      -1.303047
O        2.065541      -0.732142      -0.236442
H        0.624867       4.305990      -1.570824
H        2.405330       1.543513      -1.852677
H        1.640970       1.124952      -3.409028
H        0.122116      -1.212854      -0.381147
H       -0.324737       0.115555      -2.190400
H        0.454245       1.184588      -0.726093
