12
8.705262706229405
C        1.380774       1.333845      -2.562355
C        0.573490       0.229715      -1.960638
C        0.670576      -0.242202      -0.715565
O        0.817349       2.613408      -2.383504
O        1.072465       3.018716      -1.023235
O        1.412798       0.365816       0.254093
H        0.577125       3.841342      -0.957138
H        2.407053       1.334699      -2.161428
H        1.422862       1.222768      -3.648001
H        0.085663      -1.085157      -0.386934
H       -0.070164      -0.364799      -2.598913
H        1.455021       1.345778      -0.132058
12
7.797738581826707
C        1.383845       1.330879      -2.561931
C        0.572207       0.229018      -1.962087
C        0.669914      -0.239118      -0.715770
O        0.822888       2.611601      -2.385788
O        1.070410       3.013009      -1.022394
O        1.417396       0.378406       0.251384
H        0.576423       3.836249      -0.957018
H        2.408928       1.328933      -2.157618
H        1.428524       1.218909      -3.647466
H        0.085344      -1.079443      -0.381634
H       -0.073428      -0.362747      -2.601187
H        1.458111       1.341646      -0.131163
