12
72.27835981255339
C        1.405463       1.441761      -2.526237
C        0.527747       0.426674      -1.827449
C        0.825600      -0.371055      -0.670988
O        0.812921       2.716441      -2.510412
O        0.929761       3.224309      -1.178492
O        1.756736      -0.220529       0.101279
H        0.563921       4.113014      -1.265866
H        2.401061       1.484061      -2.060533
H        1.523418       1.224456      -3.594785
H        0.070170      -1.144865      -0.432836
H       -0.259926      -0.073005      -2.378474
H        0.861650       1.285125      -0.635042
12
70.90815502518672
C        1.401134       1.438635      -2.525262
C        0.523429       0.423830      -1.824003
C        0.833625      -0.366567      -0.666501
O        0.809626       2.714035      -2.501865
O        0.933786       3.213715      -1.167826
O        1.766093      -0.203786       0.106651
H        0.565925       4.102430      -1.247198
H        2.397722       1.478956      -2.061368
H        1.516689       1.225333      -3.594899
H        0.081950      -1.144114      -0.423123
H       -0.267048      -0.071542      -2.373456
H        0.854007       1.270413      -0.647497
