12
40.78774122258437
C        1.431520       1.465655      -2.483681
C        0.539365       0.472594      -1.748645
C        0.888328      -0.464821      -0.666852
O        0.834461       2.732931      -2.549906
O        0.877185       3.325777      -1.248817
O        1.899496      -0.514856      -0.020436
H        0.580157       4.226069      -1.427307
H        2.416957       1.532076      -2.001658
H        1.572664       1.198423      -3.538015
H        0.064835      -1.166907      -0.428803
H       -0.276159       0.011069      -2.286741
H        0.687297       1.220940      -0.732389
12
39.34555464150617
C        1.426132       1.466103      -2.486454
C        0.535242       0.472549      -1.746761
C        0.895188      -0.459226      -0.663790
O        0.830176       2.734104      -2.545344
O        0.881728       3.322087      -1.242447
O        1.905835      -0.501930      -0.010538
H        0.580435       4.222160      -1.415096
H        2.413934       1.529921      -2.008954
H        1.561876       1.202467      -3.542397
H        0.072980      -1.164964      -0.425981
H       -0.283557       0.014802      -2.281354
H        0.681235       1.209388      -0.749475
