8

C                     11.12714000         -1.66856000           1.89036000         
N                     10.26267000         -1.10965000           1.12701000         
H                     9.40386000          -0.69908000           1.52118000         
H                     10.96603000         -1.71305000           2.96329000         
H                     12.02986000         -2.09264000           1.46521000         
C                     12.01406000          1.27312000           3.10312000         
N                     13.08752000          1.25947000           2.67289000         
H                     11.03017000          1.28010000           3.49445000         
8
Properties=species:S:1:pos:R:3 energy:=T -12.034262310052=T gnorm:=T 0.000868417671=T xtb:=T 6.2.3=T (830e466)=T pbc="F F F"
C       11.77062865      -1.10698750       1.26541134
N       10.52958925      -1.30408309       1.26796587
H        9.97478047      -0.62577354       1.79021769
H        9.94965343      -0.08896141       4.52275476
H       12.40160693      -1.80724463       0.72155011
C       12.45699152      -0.03429409       1.91490821
N       12.96463946       0.84306104       2.44991076
H        9.87342031       0.65399322       4.30479126
