12

C                     1.12412000           1.60982000          -1.95070000         
C                     0.59789000           0.39365000          -1.18256000         
C                     1.52322000          -0.79282000          -1.24884000         
O                     0.18220000           2.65740000          -1.88355000         
O                     0.69980000           3.60420000          -1.12140000         
O                     2.57910000          -0.75192000          -1.86043000         
H                     0.97419000           4.31669000          -1.75480000         
H                     2.12669000           1.89931000          -1.55107000         
H                     1.26912000           1.34678000          -3.02014000         
H                     1.24158000          -1.70862000          -0.73933000         
H                    -0.38448000           0.09471000          -1.60678000         
H                     0.45566000           0.67040000          -0.11619000         
12
Properties=species:S:1:pos:R:3 energy:=T -21.575171301736=T gnorm:=T 0.000935175500=T xtb:=T 6.2.3=T (830e466)=T pbc="F F F"
C        0.74792853       1.25731089      -2.37083043
C        0.30215918       0.47335408      -1.12978038
C        1.78435179       0.11072820      -1.00638079
O        0.49005116       2.61534039      -2.43798382
O        0.88651849       3.27807170      -1.25302264
O        2.11260188       0.92557426      -2.14089885
H        1.82313144       3.48811370      -1.39999002
H        2.29261539       0.45499595      -0.10312962
H        0.38274806       0.89998979      -3.34199712
H        2.02560119      -0.93764158      -1.19512134
H       -0.38428111      -0.34608507      -1.31475604
H       -0.07433599       1.11984769      -0.34189896
