14

C                     3.02941000          -1.28725000          -1.43264000         
C                     1.41058000           1.59346000          -2.16253000         
C                     2.73827000          -2.75730000          -1.70485000         
O                     2.00288000          -0.50834000          -1.99903000         
O                     2.50192000           0.71062000          -2.13866000         
O                     3.08623000          -1.08479000          -0.04538000         
H                     3.45288000          -0.17342000           0.09458000         
H                     4.01838000          -1.07111000          -1.90623000         
H                     0.54225000           1.22755000          -1.56752000         
H                     1.10281000           1.78212000          -3.21266000         
H                     1.72675000           2.55207000          -1.70225000         
H                     2.67293000          -2.93417000          -2.79951000         
H                     1.77686000          -3.05340000          -1.23346000         
H                     3.55255000          -3.38904000          -1.28968000         
14
Properties=species:S:1:pos:R:3 energy:=T -22.582896423771=T gnorm:=T 0.000983842886=T xtb:=T 6.2.3=T (830e466)=T pbc="F F F"
C        3.00771487      -1.92474951      -1.35782581
C        1.53935940       1.74978349      -2.09890720
C        2.68332342      -3.22416683      -2.01010536
O        2.48201692      -1.49776554      -0.36339467
O        2.79790331       1.22042430      -1.76779332
O        2.99354382       1.26028743      -0.36690031
H        2.80133094       0.34391881      -0.07599925
H        3.78878484      -1.34134449      -1.87726085
H        0.72916422       1.15071106      -1.66852623
H        1.50163481       1.70219492      -3.18579748
H        1.44382439       2.78672212      -1.76711347
H        2.33204336      -3.03198783      -3.02288336
H        1.92464156      -3.76459421      -1.45034149
H        3.58941412      -3.82243371      -2.08697118
