22

C                    -1.37061000          -0.49551000           0.06485000         
C                     0.10483000          -0.00155000           0.03593000         
C                    -2.13847000          -0.02860000          -1.18584000         
C                    -2.09449000          -0.01429000           1.33615000         
C                     0.26051000           1.52670000           0.00466000         
C                    -1.90461000          -4.59173000          -0.01923000         
C                    -1.41920000          -1.97024000           0.06096000         
C                    -1.61823000          -3.15914000           0.05998000         
H                     0.61618000          -0.41159000          -0.86308000         
H                     0.64187000          -0.38230000           0.93303000         
H                    -3.17025000          -0.44939000          -1.18893000         
H                    -1.62137000          -0.37539000          -2.10814000         
H                    -2.22732000           1.07736000          -1.22135000         
H                    -1.54823000          -0.35033000           2.24505000         
H                    -3.12679000          -0.43083000           1.37854000         
H                    -2.17775000           1.09291000           1.36140000         
H                    -0.18795000           1.99602000           0.90416000         
H                    -0.20734000           1.95856000          -0.90401000         
H                     1.33885000           1.79108000          -0.01444000         
H                    -1.54334000          -4.99021000          -0.98894000         
H                    -1.42059000          -5.12891000           0.82109000         
H                    -3.00787000          -4.73209000           0.03937000         
22
Properties=species:S:1:pos:R:3 energy:=T -24.218681197324=T gnorm:=T 0.000476896689=T xtb:=T 6.2.3=T (830e466)=T pbc="F F F"
C       -2.37123489      -1.58669970       0.05757807
C        1.39571478       0.05248272       0.00930502
C       -3.14090745      -1.09372117      -1.17345875
C       -3.09180741      -1.14401814       1.33650127
C        1.31475257       1.57860307      -0.03743793
C       -2.25378707      -3.11514655       0.02422876
C       -1.03238998      -1.00756371       0.04216039
C        0.07264182      -0.54375026       0.02735418
H        1.93938344      -0.31730567      -0.86578126
H        1.93989553      -0.26340490       0.90482678
H       -4.14436519      -1.51480458      -1.18266986
H       -2.62949120      -1.39232174      -2.08614937
H       -3.21853529      -0.00865471      -1.16345162
H       -2.55598771      -1.49591329       2.21590257
H       -4.10143664      -1.54974363       1.35828493
H       -3.15135717      -0.05893768       1.38282488
H        0.78540526       1.95662621       0.83457225
H        0.78135105       1.90249261      -0.92857645
H        2.31371320       2.00955248      -0.05289865
H       -1.73373653      -3.43695381      -0.87564540
H       -1.69654121      -3.47239751       0.88770206
H       -3.24344992      -3.56789005       0.03603813
