22

C                    -2.84649000          -0.50505000           0.02187000         
C                     0.67925000          -1.28644000           0.05375000         
C                    -3.07759000           0.24450000          -1.27585000         
C                    -3.09776000           0.27873000           1.29701000         
C                     0.59025000           0.24313000           0.03391000         
C                    -0.70587000          -3.48349000           0.06564000         
C                    -1.78439000          -1.28331000           0.03955000         
C                    -0.67081000          -1.98558000           0.05272000         
H                     1.25181000          -1.62009000          -0.83896000         
H                     1.23483000          -1.59721000           0.96530000         
H                    -4.01696000          -0.13329000          -1.74004000         
H                    -2.24123000           0.10329000          -2.00087000         
H                    -3.19028000           1.34361000          -1.11871000         
H                    -4.04522000          -0.08627000           1.75430000         
H                    -3.20826000           1.37352000           1.10975000         
H                    -2.27262000           0.15647000           2.03820000         
H                     0.03650000           0.60443000           0.92772000         
H                     0.06271000           0.58173000          -0.88435000         
H                     1.61094000           0.68059000           0.04329000         
H                    -1.24054000          -3.86260000          -0.83167000         
H                    -1.21555000          -3.84726000           0.98354000         
H                     0.32707000          -3.89791000           0.05359000         
22
Properties=species:S:1:pos:R:3 energy:=T -24.217196829900=T gnorm:=T 0.000492658052=T xtb:=T 6.2.3=T (830e466)=T pbc="F F F"
C       -1.50124653      -0.46946555       0.02579140
C       -0.02500034      -0.02132163       0.00065173
C       -2.25269278      -0.00089528      -1.22622493
C       -2.22053724       0.03133403       1.28412142
C        0.19576319       1.48713303       0.00758796
C       -1.53693333      -4.57602807       0.08711613
C       -1.50845864      -1.93025963       0.04501963
C       -1.52488059      -3.12821932       0.06430372
H        0.44262706      -0.44526169      -0.89192116
H        0.47677914      -0.45710546       0.86869622
H       -3.25389714      -0.42665254      -1.23972773
H       -1.73211301      -0.32295222      -2.12553418
H       -2.34156018       1.08254142      -1.23949922
H       -3.21559529      -0.40483705       1.34121811
H       -2.32176528       1.11340760       1.26457942
H       -1.66966805      -0.25611495       2.17715276
H       -0.20513372       1.93974050       0.91083332
H       -0.26832749       1.95786423      -0.85525323
H        1.26258238       1.69804029      -0.02858694
H       -1.68831397      -4.96475314      -0.91988012
H       -2.34323138      -4.93303442       0.72788461
H       -0.58860682      -4.95166015       0.47136110
