19

C                    -1.04739000          -0.41801000           0.08605000         
C                    -1.53370000           0.49108000           1.26426000         
C                    -0.79305000          -1.89725000           0.43410000         
C                     0.27224000           0.18371000          -0.48019000         
C                    -2.54959000          -0.16297000           2.20033000         
C                    -2.16145000          -0.43636000          -0.88753000         
C                    -3.18968000          -0.55094000          -1.50629000         
H                    -0.69480000           0.81276000           1.91622000         
H                    -1.97363000           1.42143000           0.83192000         
H                    -0.48291000          -2.42901000          -0.50097000         
H                    -1.72669000          -2.40474000           0.76469000         
H                     0.00201000          -2.03767000           1.18765000         
H                     0.10988000           0.95972000          -1.25387000         
H                     0.95239000          -0.59907000          -0.88478000         
H                     0.87273000           0.64685000           0.33771000         
H                    -2.94329000           0.60226000           2.90271000         
H                    -3.39663000          -0.61586000           1.64715000         
H                    -2.03512000          -0.94432000           2.80094000         
H                    -4.08605000          -0.70651000          -2.04679000         
19
Properties=species:S:1:pos:R:3 energy:=T -21.040555756043=T gnorm:=T 0.000813037192=T xtb:=T 6.2.3=T (830e466)=T pbc="F F F"
C       -0.49359547      -0.57945415       0.84891752
C       -1.52949892       0.54955464       0.83995773
C       -0.81051721      -1.65515443      -0.18563569
C        0.89775959      -0.00212941       0.59219838
C       -2.93047415       0.11881579       1.29923203
C       -3.70812960      -0.49659861       0.24332078
C       -4.36963367      -0.96818390      -0.63516966
H       -1.17999235       1.33768498       1.51189142
H       -1.59448667       0.97381429      -0.16455782
H       -0.82380579      -1.22535011      -1.18502882
H       -1.78112409      -2.10448910       0.00319141
H       -0.05618824      -2.43857890      -0.15776998
H        0.93238575       0.48119245      -0.38181570
H        1.64732566      -0.78991972       0.60966048
H        1.15827564       0.73401535       1.34968460
H       -3.48127485       0.99885652       1.64701175
H       -2.84764130      -0.57854116       2.13856680
H       -0.49596360      -1.04168278       1.84376772
H       -4.93815075      -1.39875172      -1.40411295
