15

C                    -1.37020000          -0.59482000          -0.02327000         
C                    -1.79731000          -2.02698000           0.35508000         
C                     0.12442000          -0.59781000          -0.37919000         
C                    -1.65414000           0.34785000           1.05733000         
C                    -2.18980000           0.03049000          -1.07440000         
C                    -2.08881000           1.08018000           1.90696000         
C                    -3.02543000           0.54626000          -1.77651000         
H                    -1.17289000          -2.38187000           1.20782000         
H                    -1.62476000          -2.73586000          -0.48578000         
H                    -2.86012000          -2.09279000           0.66667000         
H                     0.48647000           0.42168000          -0.62636000         
H                     0.32724000          -1.26876000          -1.24383000         
H                     0.71296000          -0.97417000           0.48715000         
H                    -3.75828000           1.15934000          -2.23872000         
H                    -2.55117000           1.81266000           2.51157000         
15
Properties=species:S:1:pos:R:3 energy:=T -18.929568771858=T gnorm:=T 0.000764884779=T xtb:=T 6.2.3=T (830e466)=T pbc="F F F"
C       -0.93668818      -1.03630082       0.33664801
C       -1.40524868      -2.42711513       0.66803187
C        0.50617804      -0.91276469      -0.07108971
C       -1.72692934      -0.00875320       0.39974258
C       -3.29670362       1.46789896      -0.63331172
C       -2.52068694       1.02748431       0.46323215
C       -3.96365490       1.84808934      -1.55631699
H       -0.81532791      -2.83330968       1.49006443
H       -1.27230666      -3.07797836      -0.19635215
H       -2.45493466      -2.42862570       0.95055814
H        0.76314233       0.12011496      -0.29130764
H        0.69369084      -1.51916970      -0.95701338
H        1.15147606      -1.27552462       0.72900376
H       -4.54322772       2.17853984      -2.36542709
H       -2.62059867       1.60281448       1.37805774
