19

C                    -1.48122000          -0.46630000          -0.00275000         
C                    -1.95000000           0.34853000          -1.21923000         
C                    -1.84161000          -1.96122000          -0.18769000         
C                     0.04217000          -0.28446000           0.20807000         
C                    -1.27995000          -0.09826000          -2.52067000         
C                    -2.18063000           0.03502000           1.19363000         
C                    -2.68971000           0.36320000           2.23494000         
H                    -1.74500000           1.43095000          -1.04063000         
H                    -3.05907000           0.27208000          -1.31912000         
H                    -2.82242000          -2.07528000          -0.70403000         
H                    -1.88804000          -2.48764000           0.78552000         
H                    -1.09583000          -2.48950000          -0.82043000         
H                     0.63298000          -0.95969000          -0.44820000         
H                     0.33296000          -0.49720000           1.25515000         
H                     0.36010000           0.75276000          -0.04742000         
H                    -0.69691000           0.74454000          -2.94231000         
H                    -0.55481000          -0.92088000          -2.37111000         
H                    -2.04844000          -0.49536000          -3.21344000         
H                    -3.15766000           0.59931000           3.15274000         
19
Properties=species:S:1:pos:R:3 energy:=T -21.046274972123=T gnorm:=T 0.000577709510=T xtb:=T 6.2.3=T (830e466)=T pbc="F F F"
C       -1.24485088      -0.54179615      -0.80616632
C       -2.28028228       0.51972903      -0.38138222
C       -1.77083094      -1.93614644      -0.46274724
C        0.07435660      -0.29187608      -0.07403519
C       -1.02354634      -0.43323779      -2.31611782
C       -2.56302863       0.49019146       1.03830527
C       -2.79630634       0.45912189       2.21153534
H       -1.90814984       1.51521033      -0.64166562
H       -3.21470583       0.35447103      -0.92637781
H       -2.70771008      -2.13200638      -0.98080837
H       -1.94719933      -2.02059742       0.60721128
H       -1.05139432      -2.69728885      -0.75692971
H        0.81242349      -1.04046167      -0.35418522
H       -0.07571319      -0.33870943       1.00221575
H        0.47187367       0.69040479      -0.32233608
H       -0.65864032       0.55684961      -2.58323331
H       -0.28965629      -1.16608569      -2.64398135
H       -1.95059716      -0.61462662      -2.85662949
H       -2.99913199       0.43745438       3.24034810
