18

C                    -1.57129000          -0.35565000           0.14779000         
C                    -1.91709000          -1.82365000          -0.15813000         
C                    -0.05373000          -0.14994000           0.17548000         
C                    -2.54979000           1.21851000          -3.47195000         
C                    -2.05368000           0.42999000          -0.98693000         
C                    -2.22828000           0.04104000           1.41237000         
C                    -2.25954000           0.86969000          -2.08554000         
C                    -2.73480000           0.32014000           2.47648000         
H                    -3.02203000          -1.97742000          -0.15696000         
H                    -1.46749000          -2.50589000           0.59671000         
H                    -1.53624000          -2.10980000          -1.16874000         
H                     0.18914000           0.91576000           0.38887000         
H                     0.37432000          -0.39560000          -0.82965000         
H                     0.43554000          -0.79803000           0.93361000         
H                    -3.59117000           0.88102000          -3.68449000         
H                    -2.45400000           2.31670000          -3.64824000         
H                    -1.82274000           0.65466000          -4.11773000         
H                    -3.19855000           0.59166000           3.40154000         
18
Properties=species:S:1:pos:R:3 energy:=T -22.102850311959=T gnorm:=T 0.000516015019=T xtb:=T 6.2.3=T (830e466)=T pbc="F F F"
C       -1.42652678      -0.33657990      -1.17252932
C       -1.71788352      -1.83581771      -1.31934875
C        0.08229299      -0.10608213      -1.01772233
C       -1.95140059       0.42311329      -2.39762825
C       -2.10104853       0.15758757       0.01558760
C       -3.28214600       1.01477230       2.12621042
C       -2.65457315       0.56247355       1.00846759
C       -3.84054175       1.41455942       3.11535269
H       -2.78852388      -2.00906361      -1.40718581
H       -1.35236841      -2.38160807      -0.45211150
H       -1.22771516      -2.22598548      -2.20894627
H        0.29555751       0.95412852      -0.89880312
H        0.60769193      -0.47050198      -1.89826313
H        0.46103437      -0.63227157      -0.14355552
H       -3.02303563       0.27128381      -2.51070699
H       -1.76547233       1.49023008      -2.29373283
H       -1.45271910       0.06875148      -3.29760533
H       -4.32404198       1.76420044       3.97701087
