16

C                     0.44764000          -1.86152000           0.57731000         
C                     0.42819000          -2.05419000           2.09500000         
C                     0.44767000          -0.24148000           0.61109000         
C                    -0.20245000          -1.84354000           3.47350000         
C                     0.47857000          -3.37807000           0.61972000         
C                     0.42485000          -4.58389000           0.80073000         
H                     1.22056000          -1.92900000          -0.21320000         
H                     1.46057000          -1.68310000           2.31549000         
H                    -0.65088000          -1.76484000           1.85070000         
H                    -0.14521000           0.24423000           1.43287000         
H                     0.10743000           0.25900000          -0.30938000         
H                     1.49020000           0.11024000           0.82860000         
H                     0.40449000          -2.43777000           4.17712000         
H                    -1.26158000          -2.20852000           3.63364000         
H                    -0.13116000          -0.76129000           3.72952000         
H                     0.49203000          -5.59496000           1.14037000         
16
Properties=species:S:1:pos:R:3 energy:=T -17.875803809429=T gnorm:=T 0.000421429060=T xtb:=T 6.2.3=T (830e466)=T pbc="F F F"
C        0.16490295      -1.45486943       0.72880690
C        0.70859926      -2.24047730       1.93312089
C        0.40002099       0.04664015       0.84129556
C       -0.05382087      -1.93677761       3.22565045
C        0.62808217      -3.66389778       1.64949182
C        0.53164587      -4.83363027       1.41667045
H        0.65598340      -1.82645939      -0.17424295
H        1.76622816      -1.98181416       2.07372864
H       -0.90453733      -1.65442316       0.62828310
H       -0.15600694       0.47123736       1.67350447
H        0.07486891       0.54436291      -0.06968808
H        1.45760932       0.25910847       0.98720126
H        0.31779021      -2.56160886       4.03518077
H       -1.11454071      -2.14106159       3.09415333
H        0.07111325      -0.89546275       3.51076700
H        0.46298135      -5.85956657       1.20915639
