17

C                    -0.46056000          -3.20854000           3.86571000         
C                    -0.01981000          -2.35251000           2.74516000         
C                     0.65248000          -3.27296000           4.93084000         
C                     0.14945000          -0.98036000           3.34364000         
C                     0.60018000          -0.07187000           2.53663000         
C                    -0.81843000          -4.52464000           3.33633000         
C                    -1.16512000          -5.57372000           2.87017000         
H                    -1.38900000          -2.75812000           4.27277000         
H                    -0.75825000          -2.35783000           1.90647000         
H                     0.91021000          -2.79928000           2.30113000         
H                    -0.07282000          -0.71401000           4.39645000         
H                     1.68381000          -3.07719000           4.53544000         
H                     0.58617000          -4.28236000           5.32655000         
H                     0.50590000          -2.56140000           5.77768000         
H                     0.80340000          -0.41216000           1.53485000         
H                     0.75401000           0.93324000           2.87844000         
H                    -1.21781000          -6.59350000           2.61374000         
17
Properties=species:S:1:pos:R:3 energy:=T -19.981622210083=T gnorm:=T 0.000641964889=T xtb:=T 6.2.3=T (830e466)=T pbc="F F F"
C       -0.24855504      -2.39236037       3.89116204
C       -0.15972152      -3.11184334       2.53765627
C        0.68319051      -3.05598308       4.91086816
C        0.07446812      -0.92816948       3.80804484
C        0.50759404      -0.26188416       2.75421311
C       -0.62367226      -4.47998897       2.63766995
C       -1.02052114      -5.60440691       2.73810517
H       -1.27837117      -2.48687640       4.26129127
H       -0.77707181      -2.58895322       1.80177121
H        0.87638755      -3.11233247       2.18742347
H       -0.06049603      -0.40389692       4.74690036
H        1.71840278      -2.97179521       4.58402615
H        0.43507731      -4.11000281       5.01259023
H        0.58942406      -2.57897588       5.88412857
H        0.66985662      -0.71964832       1.79311638
H        0.72155772       0.79256653       2.80898340
H       -1.36373974      -6.59265898       2.81404943
