21

C                     0.64769000           0.57268000           1.32587000         
C                     1.05302000          -2.74920000           1.29204000         
C                     1.62712000           0.64228000           2.45407000         
C                     0.22129000          -2.96292000           0.03380000         
C                     0.18401000          -2.61928000           2.54032000         
C                     0.95045000           0.70910000           0.05522000         
C                     1.30070000           0.77943000          -1.20643000         
H                    -0.40583000           0.38377000           1.54982000         
H                     1.77928000          -3.58147000           1.41298000         
H                     1.62108000          -1.81493000           1.16375000         
H                     2.42877000          -0.11356000           2.33148000         
H                     1.09729000           0.42835000           3.40909000         
H                     2.09569000           1.64496000           2.52183000         
H                    -0.33327000          -3.92558000           0.08919000         
H                     0.90383000          -2.98084000          -0.84617000         
H                    -0.50013000          -2.12257000          -0.09283000         
H                    -0.35521000          -3.56755000           2.74979000         
H                    -0.55957000          -1.80440000           2.40814000         
H                     0.83045000          -2.36182000           3.40829000         
H                     2.31513000           0.65406000          -1.54179000         
H                     0.56561000           1.20488000          -1.90567000         
21
Properties=species:S:1:pos:R:3 energy:=T -22.102185708579=T gnorm:=T 0.000323120970=T xtb:=T 6.2.3=T (830e466)=T pbc="F F F"
C        0.91607968      -0.51795479       1.22165234
C        0.76097727      -2.04124498       1.39826654
C        1.57601371       0.14205545       2.43696806
C        0.10968555      -2.64885656       0.15647888
C       -0.06722754      -2.39228585       2.63263014
C        1.75337262      -0.21876413       0.01305701
C        1.36670855       0.52570904      -1.00523461
H       -0.07842726      -0.08101274       1.08147014
H        1.76076314      -2.47587113       1.51471819
H        2.74868083      -0.64508868       0.03014308
H        2.51535443      -0.35271309       2.67490669
H        0.92763621       0.09901576       3.30750541
H        1.78421690       1.18795822       2.22064550
H        0.03158616      -3.72923142       0.25698525
H        0.69249440      -2.42606115      -0.73396016
H       -0.89093007      -2.24390412       0.01942153
H       -0.23588910      -3.46639657       2.67352052
H       -1.03514716      -1.89652287       2.59429896
H        0.43874242      -2.09797259       3.54784799
H        2.01008697       0.73035195      -1.84454245
H        0.38262228       0.96418026      -1.04398902
