23

C                     0.48937000          -2.21788000           1.30585000         
C                    -0.08693000          -0.77017000           1.12315000         
C                     1.85247000          -2.23604000           2.05511000         
C                    -0.55733000          -3.13022000           1.97287000         
C                    -0.39631000          -0.05312000           2.45175000         
C                     0.82614000           0.11595000           0.26287000         
C                     2.40679000          -3.63846000           2.31854000         
H                     0.65386000          -2.63875000           0.28799000         
H                    -1.04625000          -0.86629000           0.56670000         
H                     1.76909000          -1.73398000           3.03937000         
H                     2.60320000          -1.69314000           1.44380000         
H                    -1.51517000          -3.08790000           1.41183000         
H                    -0.73767000          -2.84597000           3.02886000         
H                    -0.22748000          -4.18954000           1.94844000         
H                    -1.11415000          -0.63117000           3.06653000         
H                    -0.86424000           0.93386000           2.24922000         
H                     0.52456000           0.12692000           3.04319000         
H                     0.33972000           1.09995000           0.08475000         
H                     1.00643000          -0.35906000          -0.72434000         
H                     1.79924000           0.30663000           0.76026000         
H                     2.49773000          -4.21369000           1.37433000         
H                     1.75637000          -4.18729000           3.03131000         
H                     3.40886000          -3.55454000           2.78982000         
23
Properties=species:S:1:pos:R:3 energy:=T -23.156140376079=T gnorm:=T 0.000505773694=T xtb:=T 6.2.3=T (830e466)=T pbc="F F F"
C       -0.19875585      -2.12301581       0.74705483
C        0.74986266      -1.15479155       1.48927787
C        2.12931409      -1.78869627       1.75827738
C       -1.09073432      -3.01367288       1.60900541
C        0.13300954      -0.63930084       2.79086548
C        0.99267048       0.05222461       0.57024388
C        2.14774393      -3.08555192       2.55924814
H        0.40294301      -2.75306367       0.08795401
H       -0.85718430      -1.53012383       0.10744092
H        2.73822006      -1.05010601       2.28639505
H        2.61169597      -1.97572600       0.79504137
H       -1.64174130      -3.69776088       0.96597537
H       -1.81424750      -2.42017144       2.16165351
H       -0.51810036      -3.60364844       2.31719512
H       -0.00908425      -1.43876882       3.51114966
H       -0.83186105      -0.17692709       2.59497208
H        0.78370199       0.10977231       3.23764562
H        0.06912837       0.60422965       0.40943153
H        1.37033615      -0.27272364      -0.39709304
H        1.72109384       0.73004464       1.01037352
H        1.66183843      -3.89071500       2.01522174
H        1.65916542      -2.96358041       3.52240634
H        3.17928499      -3.38182669       2.74246421
