18

C                     1.23100000          -0.64348000           0.12961000         
C                    -0.25148000          -0.15230000           0.22761000         
C                     2.28362000           0.17527000           0.90017000         
C                    -0.51083000           1.21451000           0.86430000         
C                     1.31751000          -2.10602000           0.50247000         
C                     1.05742000          -2.55151000           1.74234000         
H                     1.53988000          -0.56859000          -0.93771000         
H                    -0.85690000          -0.86669000           0.82651000         
H                    -0.68611000          -0.17088000          -0.79588000         
H                     1.60309000          -2.82402000          -0.25809000         
H                     2.41628000           1.16912000           0.42004000         
H                     3.26957000          -0.34010000           0.84617000         
H                     2.02038000           0.31168000           1.96776000         
H                    -1.60412000           1.41994000           0.82417000         
H                     0.02212000           2.02975000           0.33763000         
H                    -0.22167000           1.19839000           1.93766000         
H                     0.77171000          -1.86796000           2.53512000         
H                     1.13174000          -3.61010000           1.96213000         
18
Properties=species:S:1:pos:R:3 energy:=T -18.939186903026=T gnorm:=T 0.000682649952=T xtb:=T 6.2.3=T (830e466)=T pbc="F F F"
C        1.79778724      -0.44467809       0.04090747
C       -0.71005169      -0.55624548       0.37860906
C        3.18589575      -0.64906883       0.63221586
C       -1.10235285       0.82854840       0.89814469
C        0.65511919      -0.95745629       0.87583736
C        0.79527441      -1.68574842       1.97120099
H        1.63968756       0.62316131      -0.13637032
H       -1.45230534      -1.28190169       0.71656940
H       -0.71732459      -0.54535395      -0.71399674
H        1.74816442      -0.93662322      -0.93668868
H        3.93557456      -0.20800884      -0.02149165
H        3.40934281      -1.70760152       0.73939068
H        3.25999494      -0.17548965       1.60811287
H       -2.09083722       1.10321081       0.53725254
H       -0.39386803       1.58353664       0.56461993
H       -1.11637876       0.82934287       1.98585885
H       -0.06309280      -2.03178442       2.52337073
H        1.75258037      -1.97082962       2.36846696
