9

C                    -4.34756000           2.17970000          -0.34391000         
O                    -3.58108000           1.72806000          -1.35494000         
N                    -3.81684000           2.43151000           0.79526000         
H                    -3.96931000           1.53489000          -2.21919000         
H                    -4.39229000           2.77732000           1.57669000         
H                    -5.41329000           2.32988000          -0.49465000         
O                    -0.39808000           1.68530000          -0.14236000         
H                    -0.81419000           2.25972000          -0.83334000         
H                    -1.14575000           1.14184000           0.21285000         
9
Properties=species:S:1:pos:R:3 energy:=T -15.598982410126=T gnorm:=T 0.000988830852=T xtb:=T 6.2.3=T (830e466)=T pbc="F F F"
C       -3.95648308       1.72359104       0.32852700
O       -3.21674436       0.70942939      -0.08416181
N       -3.59629572       2.45170973       1.28945815
H       -2.17527295       2.87340836      -3.67292960
H       -4.21279846       3.20797806       1.54692026
H       -4.85426792       1.77185743      -0.29465413
O       -2.03251535       0.56034386       0.65887102
H       -1.73178510       3.47473600      -3.88839004
H       -2.10222705       1.29516613       1.31276915
