12
4.672182429523673
C        1.898036       1.476587      -2.062749
C        1.092836       0.737060      -1.027925
C        0.632598      -0.489280      -1.249980
O        1.159605       2.453302      -2.760892
O        0.819580       3.524110      -1.871589
O       -0.089743      -1.191631      -0.329716
H        0.410519       4.157681      -2.472880
H        2.771019       1.946418      -1.590795
H        2.225608       0.811828      -2.864618
H        0.757729      -0.999346      -2.191065
H       -0.295623      -0.544726       0.356532
H        0.986649       1.238966      -0.078060
12
4.618454340470635
C        1.898287       1.476589      -2.062895
C        1.093693       0.737224      -1.028180
C        0.632370      -0.488360      -1.249217
O        1.159466       2.453232      -2.761125
O        0.819698       3.523884      -1.871880
O       -0.090572      -1.191403      -0.330725
H        0.410303       4.157489      -2.473114
H        2.771349       1.946869      -1.591578
H        2.225592       0.811475      -2.864670
H        0.758754      -0.999499      -2.189653
H       -0.297151      -0.546347       0.357125
H        0.986823       1.239402      -0.078342
