12
3.2795021792644548
C        1.882436       1.493053      -2.083552
C        1.056657       0.785079      -1.054051
C        0.685586      -0.482503      -1.158607
O        1.166466       2.479339      -2.794581
O        0.855618       3.566894      -1.917371
O       -0.064328      -1.165728      -0.266059
H        0.454687       4.201309      -2.524446
H        2.763299       1.954257      -1.615617
H        2.199724       0.809028      -2.873789
H        0.981486      -1.111887      -1.985768
H       -0.327652      -0.580677       0.456143
H        0.735121       1.391545      -0.218002
12
3.2794841822906164
C        1.882467       1.493044      -2.083543
C        1.056674       0.785085      -1.054056
C        0.685583      -0.482483      -1.158617
O        1.166498       2.479335      -2.794594
O        0.855610       3.566884      -1.917373
O       -0.064350      -1.165703      -0.266063
H        0.454621       4.201235      -2.524413
H        2.763319       1.954253      -1.615597
H        2.199774       0.809017      -2.873776
H        0.981438      -1.111870      -1.985792
H       -0.327666      -0.580640       0.456138
H        0.735133       1.391551      -0.218015
