12
56.461551441791016
C        1.813304       1.404288      -1.908145
C        1.101772       0.729415      -0.740594
C        0.558878      -0.566006      -1.278976
O        1.026620       2.259825      -2.708510
O        0.675809       3.410061      -1.943670
O        0.045304      -1.444304      -0.691303
H        0.276377       3.991303      -2.610654
H        2.679527       1.950468      -1.529699
H        2.147721       0.645267      -2.612653
H        0.628580      -0.656280      -2.377889
H       -0.046674       0.503157      -0.181048
H        1.466083       0.976242       0.241216
12
56.292405328144014
C        1.813449       1.404653      -1.907794
C        1.101639       0.729320      -0.740763
C        0.559568      -0.566858      -1.278589
O        1.027126       2.260130      -2.708558
O        0.676123       3.410142      -1.943503
O        0.045169      -1.444257      -0.690475
H        0.276423       3.991617      -2.610239
H        2.679205       1.950985      -1.528617
H        2.148558       0.645831      -2.612210
H        0.630326      -0.658198      -2.377460
H       -0.045770       0.503617      -0.182958
H        1.465534       0.976436       0.241125
