60

C                    -1.80023000           4.08275000          -0.52548000         
C                    -1.87309000           3.89423000          -1.84155000         
H                    -2.58474000           4.62319000          -0.00689000         
H                    -0.96039000           3.69199000           0.04062000         
H                    -2.71766000           4.27907000          -2.40238000         
H                    -1.09516000           3.34639000          -2.36300000         
C                    -5.94337000           0.00442000          -0.01790000         
C                    -5.53005000          -1.10262000           0.96628000         
C                    -6.43789000           1.30180000           0.66219000         
C                    -6.96422000          -1.62469000           0.90679000         
C                    -5.31945000           2.05029000           1.38962000         
C                    -7.10905000          -0.90345000          -0.43670000         
Ga                   -2.38622000           0.37721000          -0.41791000         
H                    -5.22643000           0.24551000          -0.83030000         
H                    -5.08260000          -0.85254000           1.95151000         
H                    -4.88495000          -1.83013000           0.41769000         
H                    -7.24451000           1.10303000           1.39793000         
H                    -6.85389000           1.96548000          -0.12638000         
H                    -7.13682000          -2.71886000           0.95182000         
H                    -7.57032000          -1.09111000           1.67430000         
H                    -4.90727000           1.43788000           2.21726000         
H                    -4.50250000           2.32256000           0.69498000         
H                    -5.72584000           2.98719000           1.82377000         
H                    -3.15792000           1.64715000          -1.00363000         
H                    -8.08777000          -0.45481000          -0.70904000         
H                    -6.74564000          -1.59890000          -1.23095000         
O                    -1.44330000          -0.32170000          -1.67670000         
O                    -1.53750000           0.70480000           1.05560000         
Si                    2.64350000           2.59470000          -0.84030000         
Si                    2.72700000          -0.35600000          -2.17660000         
Si                   -0.36010000          -1.50610000          -2.04990000         
Si                    2.29690000           1.15490000           2.08930000         
Si                    3.32550000          -1.63250000           0.76720000         
Si                    0.33900000          -2.77780000           0.86800000         
Si                   -0.70870000          -0.00580000           2.28110000         
O                     2.74780000           1.29810000          -1.88680000         
O                     1.17430000          -0.89160000          -2.37980000         
O                     1.35680000           3.60630000          -1.29580000         
O                     2.28240000           2.05930000           0.69050000         
O                     3.38230000          -1.08450000          -0.81400000         
O                    -0.15370000          -2.52760000          -0.71410000         
O                     3.07010000          -0.29070000           1.73170000         
O                     2.02390000          -2.68650000           0.91820000         
O                    -0.24610000          -1.57250000           1.85500000         
O                     0.74720000           0.80310000           2.59910000         
O                    -0.86740000          -2.40070000          -3.39260000         
O                     3.58730000          -0.73130000          -3.57490000         
O                     4.74980000          -2.40650000           1.21100000         
O                    -0.18240000          -4.28360000           1.41450000         
O                     4.12210000           3.41700000          -0.89250000         
O                     3.14440000           2.05960000           3.23090000         
O                    -1.64580000          -0.04240000           3.68820000         
H                     3.23430000           1.81760000           4.16450000         
H                     1.36850000           4.14390000          -2.10270000         
H                     4.52500000           3.85970000          -0.12980000         
H                     4.49750000          -0.44560000          -3.74510000         
H                    -0.24640000          -2.73420000          -4.05860000         
H                    -0.46570000          -4.99510000           0.82090000         
H                    -1.37320000          -0.50250000           4.49680000         
H                     4.81600000          -3.36080000           1.36440000         
