60

C                    -1.82384000           4.12838000          -0.53391000         
C                    -1.90136000           3.94219000          -1.85033000         
H                    -2.62397000           4.63621000          -0.00628000         
H                    -0.96458000           3.76871000           0.02248000         
H                    -2.76514000           4.29691000          -2.40241000         
H                    -1.10720000           3.42795000          -2.38089000         
C                    -5.76898000           0.73465000           0.11754000         
C                    -5.70233000          -0.66649000           0.69392000         
C                    -5.47288000           1.88667000           0.75483000         
C                    -7.04531000          -1.40025000           0.59670000         
C                    -5.00186000           2.04572000           2.17576000         
C                    -7.48262000          -1.65681000          -0.84769000         
Ga                   -2.38629000           0.38977000          -0.42014000         
H                    -6.06166000           0.82448000          -0.92300000         
H                    -5.39854000          -0.66856000           1.75469000         
H                    -4.93885000          -1.25012000           0.13705000         
H                    -3.17725000           1.67219000          -0.96009000         
H                    -5.56396000           2.80650000           0.18278000         
H                    -6.93486000          -2.38882000           1.09377000         
H                    -7.82955000          -0.82598000           1.13551000         
H                    -4.89921000           1.10436000           2.74140000         
H                    -4.00643000           2.53801000           2.16471000         
H                    -5.71461000           2.69721000           2.72022000         
H                    -7.65923000          -0.70810000          -1.39370000         
H                    -8.43236000          -2.23245000          -0.84962000         
H                    -6.71171000          -2.24832000          -1.38280000         
O                    -1.44330000          -0.32170000          -1.67670000         
O                    -1.53750000           0.70480000           1.05560000         
Si                    2.64350000           2.59470000          -0.84030000         
Si                    2.72700000          -0.35600000          -2.17660000         
Si                   -0.36010000          -1.50610000          -2.04990000         
Si                    2.29690000           1.15490000           2.08930000         
Si                    3.32550000          -1.63250000           0.76720000         
Si                    0.33900000          -2.77780000           0.86800000         
Si                   -0.70870000          -0.00580000           2.28110000         
O                     2.74780000           1.29810000          -1.88680000         
O                     1.17430000          -0.89160000          -2.37980000         
O                     1.35680000           3.60630000          -1.29580000         
O                     2.28240000           2.05930000           0.69050000         
O                     3.38230000          -1.08450000          -0.81400000         
O                    -0.15370000          -2.52760000          -0.71410000         
O                     3.07010000          -0.29070000           1.73170000         
O                     2.02390000          -2.68650000           0.91820000         
O                    -0.24610000          -1.57250000           1.85500000         
O                     0.74720000           0.80310000           2.59910000         
O                    -0.86740000          -2.40070000          -3.39260000         
O                     3.58730000          -0.73130000          -3.57490000         
O                     4.74980000          -2.40650000           1.21100000         
O                    -0.18240000          -4.28360000           1.41450000         
O                     4.12210000           3.41700000          -0.89250000         
O                     3.14440000           2.05960000           3.23090000         
O                    -1.64580000          -0.04240000           3.68820000         
H                     3.23430000           1.81760000           4.16450000         
H                     1.36850000           4.14390000          -2.10270000         
H                     4.52500000           3.85970000          -0.12980000         
H                     4.49750000          -0.44560000          -3.74510000         
H                    -0.24640000          -2.73420000          -4.05860000         
H                    -0.46570000          -4.99510000           0.82090000         
H                    -1.37320000          -0.50250000           4.49680000         
H                     4.81600000          -3.36080000           1.36440000         
