60

C                    -1.88900000           3.98301000          -0.52239000         
C                    -2.00181000           3.57462000          -1.78451000         
H                    -2.71650000           4.49190000          -0.04027000         
H                    -0.97840000           3.80012000           0.03567000         
H                    -2.91987000           3.74753000          -2.33718000         
H                    -1.17925000           3.05903000          -2.26614000         
C                    -5.82308000           0.44534000          -1.01063000         
C                    -5.17586000          -0.89578000          -0.55955000         
C                    -6.33504000           1.41082000           0.09638000         
C                    -3.90113000          -0.84309000           0.28210000         
C                    -5.26250000           2.13724000           0.91153000         
C                    -7.02188000           0.08680000          -1.90980000         
Ga                   -2.41641000           0.34595000          -0.38567000         
H                    -5.09705000           0.99941000          -1.64488000         
H                    -5.92103000          -1.50894000          -0.00494000         
H                    -4.90325000          -1.45012000          -1.48343000         
H                    -7.04715000           0.89272000           0.77444000         
H                    -6.88928000           2.22878000          -0.41605000         
H                    -3.49385000          -1.87097000           0.38389000         
H                    -4.14003000          -0.52665000           1.31187000         
H                    -4.70659000           1.47202000           1.58778000         
H                    -4.55550000           2.66222000           0.23555000         
H                    -5.75152000           2.89815000           1.55661000         
H                    -7.47808000           1.00297000          -2.34167000         
H                    -7.79827000          -0.45591000          -1.32676000         
H                    -6.69957000          -0.55798000          -2.75530000         
O                    -1.44330000          -0.32170000          -1.67670000         
O                    -1.53750000           0.70480000           1.05560000         
Si                    2.64350000           2.59470000          -0.84030000         
Si                    2.72700000          -0.35600000          -2.17660000         
Si                   -0.36010000          -1.50610000          -2.04990000         
Si                    2.29690000           1.15490000           2.08930000         
Si                    3.32550000          -1.63250000           0.76720000         
Si                    0.33900000          -2.77780000           0.86800000         
Si                   -0.70870000          -0.00580000           2.28110000         
O                     2.74780000           1.29810000          -1.88680000         
O                     1.17430000          -0.89160000          -2.37980000         
O                     1.35680000           3.60630000          -1.29580000         
O                     2.28240000           2.05930000           0.69050000         
O                     3.38230000          -1.08450000          -0.81400000         
O                    -0.15370000          -2.52760000          -0.71410000         
O                     3.07010000          -0.29070000           1.73170000         
O                     2.02390000          -2.68650000           0.91820000         
O                    -0.24610000          -1.57250000           1.85500000         
O                     0.74720000           0.80310000           2.59910000         
O                    -0.86740000          -2.40070000          -3.39260000         
O                     3.58730000          -0.73130000          -3.57490000         
O                     4.74980000          -2.40650000           1.21100000         
O                    -0.18240000          -4.28360000           1.41450000         
O                     4.12210000           3.41700000          -0.89250000         
O                     3.14440000           2.05960000           3.23090000         
O                    -1.64580000          -0.04240000           3.68820000         
H                     3.23430000           1.81760000           4.16450000         
H                     1.36850000           4.14390000          -2.10270000         
H                     4.52500000           3.85970000          -0.12980000         
H                     4.49750000          -0.44560000          -3.74510000         
H                    -0.24640000          -2.73420000          -4.05860000         
H                    -0.46570000          -4.99510000           0.82090000         
H                    -1.37320000          -0.50250000           4.49680000         
H                     4.81600000          -3.36080000           1.36440000         
