12
0.0
C        1.584953       1.457254      -2.044852
C        0.967914       0.687449      -0.871320
C        0.948406      -0.790850      -1.108304
O        1.504211       2.845358      -1.882745
O        0.135897       3.252955      -1.978099
O        1.234458      -1.626421      -0.299858
H        0.207945       4.212896      -1.906671
H        2.661024       1.279279      -2.111963
H        1.104159       1.160150      -2.986189
H        0.621530      -1.070730      -2.130480
H        1.490731       0.915917       0.058566
H       -0.072019       1.016843      -0.773795
12
-4.9240668886341155e-05
C        1.584970       1.457251      -2.044844
C        0.967948       0.687446      -0.871318
C        0.948389      -0.790853      -1.108316
O        1.504209       2.845368      -1.882723
O        0.135871       3.252919      -1.977994
O        1.234397      -1.626436      -0.299881
H        0.207888       4.212926      -1.906800
H        2.661046       1.279290      -2.111959
H        1.104173       1.160146      -2.986187
H        0.621512      -1.070713      -2.130480
H        1.490782       0.915885       0.058571
H       -0.071973       1.016871      -0.773780
