12
0.0
C        1.602322       1.637808      -2.179281
C        1.610191       0.203438      -1.622129
C        0.952485       0.135832      -0.269325
O        0.354376       2.072102      -2.645092
O       -0.510856       2.396739      -1.560462
O        1.522303      -0.142846       0.747533
H       -0.944109       3.207901      -1.859657
H        2.221629       1.681376      -3.079977
H        1.999577       2.335864      -1.432175
H       -0.122326       0.386592      -0.279677
H        1.060190      -0.438064      -2.313176
H        2.643198      -0.137032      -1.542383
12
-0.0001332579122390598
C        1.602346       1.637805      -2.179284
C        1.610175       0.203452      -1.622136
C        0.952471       0.135842      -0.269333
O        0.354378       2.072119      -2.645106
O       -0.510832       2.396821      -1.560415
O        1.522330      -0.142924       0.747588
H       -0.944198       3.207842      -1.859731
H        2.221632       1.681375      -3.079955
H        1.999588       2.335846      -1.432178
H       -0.122261       0.386619      -0.279692
H        1.060168      -0.438042      -2.313185
H        2.643184      -0.137045      -1.542374
