12
144.25301569491057
C        2.380507       1.516216      -2.593581
C        1.233648       0.843879      -1.648536
C        0.775133       0.161985      -0.383632
O       -0.014606       1.479793      -2.044748
O       -0.310384       2.607234      -1.203803
O        1.488064      -0.440991       0.382540
H       -1.160347       2.909036      -1.552906
H        3.102465       0.749829      -2.861939
H        2.845112       2.478342      -2.435334
H       -0.295912       0.304041      -0.226418
H        1.258942       0.484892      -2.861696
H        2.288874       1.263001      -1.276709
12
144.20811758031232
C        2.380766       1.516005      -2.593350
C        1.233532       0.843690      -1.648487
C        0.775132       0.162262      -0.384077
O       -0.014670       1.479562      -2.044751
O       -0.310716       2.607265      -1.203972
O        1.488381      -0.440561       0.382037
H       -1.160676       2.909440      -1.553003
H        3.102570       0.749892      -2.861615
H        2.845538       2.478206      -2.435277
H       -0.296272       0.303944      -0.226413
H        1.259000       0.484666      -2.861309
H        2.288809       1.263077      -1.276656
12
144.09643554632748
C        2.380825       1.515729      -2.593486
C        1.233180       0.843519      -1.648478
C        0.775120       0.162496      -0.384018
O       -0.015433       1.479660      -2.044809
O       -0.311031       2.607609      -1.203781
O        1.489988      -0.439850       0.381018
H       -1.161838       2.909349      -1.553028
H        3.102670       0.749814      -2.861186
H        2.845932       2.477772      -2.435870
H       -0.296011       0.303667      -0.226144
H        1.258699       0.484217      -2.860371
H        2.289645       1.263383      -1.277056
