12
19.151852461489398
C        2.101440       1.180240      -2.526922
C        1.109605       1.079348      -1.301166
C        0.898289      -0.087928      -0.374718
O       -0.113411       1.598409      -1.724962
O       -0.190121       2.993419      -1.431340
O        1.753083      -0.818379       0.041243
H       -1.037546       3.243791      -1.799025
H        3.017911       0.611400      -2.421803
H        2.226088       2.211088      -2.763795
H       -0.163133      -0.186901      -0.074471
H        1.493067       0.473897      -3.166667
H        1.740478       1.671765      -0.610825
12
19.10867195955143
C        2.101567       1.179975      -2.526927
C        1.109480       1.079365      -1.301332
C        0.898233      -0.087760      -0.374796
O       -0.113450       1.598520      -1.725305
O       -0.190298       2.993388      -1.430951
O        1.753157      -0.817968       0.041343
H       -1.037724       3.243990      -1.798869
H        3.017870       0.610816      -2.421660
H        2.226562       2.210711      -2.763870
H       -0.163195      -0.186875      -0.074739
H        1.493835       0.474070      -3.166746
H        1.739896       1.672080      -0.610765
