9
65.51525241911804
C       -2.293693      -0.399425       1.234755
C       -1.247208       0.352307       1.951796
C       -0.443314      -0.099305       0.840028
H       -1.013506       0.304960       2.996592
H       -2.682194      -0.125067       0.273550
H       -1.840903       1.421976       1.900229
H       -2.699352      -1.307369       1.671376
H       -0.546367       0.187087      -0.184752
H        0.513870      -0.440098       1.204195
9
65.4213860003274
C       -2.293668      -0.399611       1.234704
C       -1.247335       0.352551       1.951802
C       -0.443382      -0.099151       0.840102
H       -1.013682       0.305074       2.996623
H       -2.681961      -0.125231       0.273402
H       -1.840207       1.421949       1.900514
H       -2.699288      -1.307620       1.671157
H       -0.546550       0.187198      -0.184677
H        0.513802      -0.439933       1.204277
