9
100.69027288564484
C       -2.514049      -0.384780       1.340151
C       -1.232251       0.227944       1.829732
C       -0.172130      -0.000758       0.866924
H       -0.971600       0.148528       2.875101
H       -2.873334      -0.135693       0.363849
H       -1.815147       1.268561       1.787582
H       -3.014834      -1.199615       1.831241
H       -0.286558       0.222596      -0.173129
H        0.825773      -0.181360       1.228002
9
100.63104731159092
C       -2.514376      -0.384984       1.340173
C       -1.232269       0.228062       1.829638
C       -0.172116      -0.000704       0.866966
H       -0.971587       0.148560       2.874991
H       -2.873676      -0.135822       0.363806
H       -1.813819       1.268331       1.787398
H       -3.015355      -1.199608       1.831260
H       -0.286537       0.222680      -0.173054
H        0.825830      -0.181258       1.228108
9
100.3983619919918
C       -2.515687      -0.385365       1.340523
C       -1.232268       0.229051       1.829315
C       -0.172164      -0.000300       0.867071
H       -0.971606       0.148695       2.874658
H       -2.874943      -0.136086       0.363886
H       -1.808931       1.267207       1.786565
H       -3.017075      -1.199294       1.831673
H       -0.286620       0.222615      -0.172956
H        0.825828      -0.180923       1.228491
