9
10.83830773754471
C       -2.137797      -0.464193       1.188269
C       -1.312010       0.491263       1.971224
C       -0.614432      -0.151567       0.849963
H       -1.071279       0.348848       3.011923
H       -2.658280      -0.164842       0.296724
H       -1.754858       1.491759       1.926486
H       -2.425370      -1.421714       1.593602
H       -0.583223       0.246055      -0.148141
H        0.248436      -0.695500       1.197661
9
10.808110971376664
C       -2.137281      -0.464093       1.188347
C       -1.312391       0.491871       1.970966
C       -0.614541      -0.151208       0.849990
H       -1.071823       0.348933       3.011701
H       -2.657457      -0.164983       0.296532
H       -1.755321       1.492180       1.927040
H       -2.424686      -1.421709       1.593497
H       -0.583387       0.246126      -0.148256
H        0.248452      -0.694766       1.197933
