12
65.61457806992985
C        1.235233       1.425433      -2.396351
C        0.807507       0.109777      -1.873764
C        1.079305      -0.346168      -0.481703
O        0.410203       2.485370      -1.373441
O        1.040867       3.706734      -1.718669
O        1.705447       0.218107       0.375010
H        1.128530       4.154592      -0.867131
H        2.092067       1.990291      -2.005002
H        1.155370       1.605660      -3.463693
H        0.606374      -1.327425      -0.276430
H        0.815605      -0.693112      -2.592428
H       -0.113913       0.836948      -1.300682
12
65.44337456607354
C        1.235429       1.425688      -2.396154
C        0.807250       0.109757      -1.873919
C        1.078831      -0.346275      -0.481826
O        0.410675       2.484549      -1.373827
O        1.040923       3.706463      -1.717917
O        1.704690       0.217841       0.375172
H        1.127883       4.153785      -0.866054
H        2.092422       1.990267      -2.004475
H        1.155701       1.606250      -3.463437
H        0.605876      -1.327573      -0.276839
H        0.814999      -0.693052      -2.592696
H       -0.112919       0.836588      -1.301612
