12
26.472041298646218
C        1.498439       0.869688      -2.833099
C        1.245341      -0.292857      -2.235934
C        1.003231      -0.442710      -0.794119
O        0.081979       3.038649      -0.288342
O        0.960266       3.483845      -1.300307
O        0.952987       0.445761       0.022784
H        1.101669       4.404154      -1.043689
H        1.567676       1.809361      -2.307857
H        1.668079       0.916867      -3.898235
H        0.821609      -1.486792      -0.482472
H        1.285086      -1.231870      -2.771921
H        0.203261       2.064562      -0.295734
12
26.445276645343256
C        1.498266       0.868780      -2.833016
C        1.245139      -0.293492      -2.235709
C        1.003392      -0.443018      -0.794551
O        0.081711       3.039253      -0.288224
O        0.960538       3.486103      -1.300358
O        0.953445       0.445853       0.021674
H        1.102049       4.406142      -1.042789
H        1.567518       1.808173      -2.307774
H        1.667569       0.915751      -3.898112
H        0.821863      -1.487093      -0.482454
H        1.284432      -1.232545      -2.771623
H        0.202976       2.065502      -0.295946
