12
0.0
C        1.212930       1.498698      -2.235127
C        0.663498       0.138315      -1.820697
C        1.143735      -0.284149      -0.458084
O        0.439560       2.455668      -1.537419
O        1.003182       3.742214      -1.674406
O        2.001484       0.255078       0.177894
H        1.367818       3.936109      -0.798651
H        2.268379       1.584502      -1.946617
H        1.119723       1.653699      -3.317120
H        0.626027      -1.186120      -0.076692
H        0.969958      -0.627875      -2.535687
H       -0.427283       0.173581      -1.812983
12
-0.00013640800898429006
C        1.212921       1.498709      -2.235128
C        0.663504       0.138320      -1.820697
C        1.143751      -0.284155      -0.458059
O        0.439523       2.455666      -1.537453
O        1.003137       3.742226      -1.674471
O        2.001442       0.255049       0.177929
H        1.367906       3.936153      -0.798602
H        2.268380       1.584532      -1.946598
H        1.119728       1.653705      -3.317114
H        0.626061      -1.186173      -0.076700
H        0.969964      -0.627897      -2.535726
H       -0.427307       0.173585      -1.812971
