  48
 
 Si        -3.1386877566        0.8262526194        0.2134378651
 C         -3.6571220901        2.5570671309       -0.3919836184
 H         -2.8107369186        3.2374056441       -0.4196283885
 H         -4.4127229620        2.9929101925        0.2535912527
 H         -4.0716820339        2.5091766613       -1.3954227389
 C         -4.5592569699       -0.4263370386        0.1702206031
 H         -5.0864190758       -0.3938599227       -0.7780586037
 H         -5.2801167245       -0.2285872499        0.9566645924
 H         -4.1837575797       -1.4368152295        0.2983381521
 C         -2.3046137503        0.9322235706        1.9251750229
 O         -1.0604759420       -2.3680689257       -0.9209884416
 H         -1.4705890329        1.6289457869        1.9182030246
 H         -1.9231898407       -0.0411053950        2.2236237109
 H         -2.9999074677        1.2604834070        2.6910543620
 C         -0.0203934833       -1.7646808855       -1.0978984027
 C          1.2829056389       -2.3841365403       -0.5650284665
 H          0.9440681709       -3.0707615703        0.2146721444
 H          1.6835405530       -3.0018014852       -1.3737346527
 C          0.0645680874       -0.4236282960       -1.6504803935
 C         -0.8527366265        0.4589026594       -1.1415506932
 O         -2.0863018905        0.1257743707       -0.8759159372
 C          1.4207281673        0.1786115986       -1.9712138614
 C          1.9933357238       -0.1291148725        0.4220034956
 C          2.4459357022       -1.5115443224       -0.0000348807
 C          1.7680077738        0.2086478243        1.8674671719
 O         -0.5233631190        1.7146201207       -0.7659327771
 C          3.1877482023       -2.2753663539        1.1058379954
 C          2.6389032793       -0.5884591616        2.8319704789
 H          0.7169774121       -0.0158783025        2.0869102368
 H          1.9099317116        1.2801189845        2.0250457619
 C          2.5672291462       -2.0684367062        2.4804608078
 H          4.2216485964       -1.9220726195        1.1419538280
 H          3.2142722631       -3.3370899852        0.8528836138
 H          2.2959838906       -0.4177731737        3.8543423916
 H          3.6754464764       -0.2500270876        2.7647899014
 H          3.1080095033       -2.6607816013        3.2210201292
 H          1.5257742698       -2.3960779029        2.4798124373
 C          1.3503876188        1.4095290752       -2.8869551519
 C          1.6515286938        0.6886048478       -0.5743720389
 H          2.1043191924       -0.5736766082       -2.3509493236
 C          0.8939859808        1.9846296016       -0.6199361586
 C          1.3734418001        2.6102831727       -1.9284685762
 H          2.3851902004        2.9952495551       -1.7999094353
 H          0.7216106419        3.4210903771       -2.2481890664
 H          0.4312400899        1.3953295705       -3.4731912054
 H          2.1927929345        1.4347785258       -3.5769365822
 H          0.9799977437        2.6307845022        0.2544835619
 H          3.1678237991       -1.3714485629       -0.8121831472
          48
        -65.77406010
 Si        -3.0062007478       -0.4990916209        0.1281997889
 C         -2.9931602367       -2.2622027140        0.8412396947
 H         -2.3652494090       -2.9374094592        0.2739941565
 H         -4.0015939421       -2.6614407103        0.8489438396
 H         -2.6363757931       -2.2529966745        1.8669696627
 C         -4.4456698914        0.3811195856        1.0416012251
 H         -5.3909503023       -0.1110182670        0.8376193734
 H         -4.5492666314        1.4204552664        0.7426579927
 H         -4.2986830973        0.3691168466        2.1170843910
 C         -3.3459236264       -0.1788349640       -1.7211700583
 O         -0.9913332535       -1.4459768959       -0.9631577810
 H         -2.7100349150        0.6179387651       -2.0968455984
 H         -4.3783463175        0.1134017928       -1.8830487909
 H         -3.1493543326       -1.0589806389       -2.3219861488
 C         -0.1001355526       -0.6405476460       -1.2300020093
 C          1.1975421431       -1.1302783573       -1.8561026939
 H          1.0562368389       -2.1927367226       -2.0600475948
 H          1.3122365362       -0.6289810589       -2.8184239065
 C         -0.1282081230        0.7429565733       -0.8768027952
 C         -0.7043466979        0.9925807814        0.3576309818
 O         -1.7716714199        0.4341118636        0.8177483020
 C          1.0947171704        1.5857857864       -1.1923681993
 C          2.4056935541       -0.0228281017        0.1795366380
 C          2.5114656887       -0.9547862859       -1.0144594761
 C          2.8757965892       -0.5771927373        1.4887180720
 O         -0.1213792288        1.7928430877        1.2659315741
 C          2.9904919923       -2.3274833863       -0.5270142042
 C          2.1003076535       -1.8626273125        1.8002727882
 H          2.7211682044        0.1470626974        2.2885163000
 H          3.9463707983       -0.7928915502        1.4417952027
 C          2.0996639799       -2.8321642832        0.6054032482
 H          4.0243669899       -2.2571789228       -0.1842589203
 H          2.9762110504       -3.0386395565       -1.3552738240
 H          1.0732739021       -1.5925648059        2.0525266347
 H          2.5413991580       -2.3353435443        2.6795071909
 H          2.4404673753       -3.8200999767        0.9191959357
 H          1.0825147553       -2.9419855869        0.2277513335
 C          0.8443678341        3.0972965705       -1.0897270126
 C          1.8500041629        1.1791177185        0.0429530525
 H          1.5485886764        1.3143307666       -2.1396543814
 C          1.2722927089        2.1339903355        1.0488140917
 C          1.3115194109        3.4762956498        0.3237975135
 H          2.3335471101        3.8552630032        0.3157221775
 H          0.6640331279        4.2080152607        0.8028713330
 H         -0.2154031890        3.3173729896       -1.2228311656
 H          1.4008078350        3.6411465682       -1.8520153961
 H          1.7236714790        2.1427227640        2.0407964882
 H          3.2698870425       -0.5502674549       -1.6967148008
