8

H                    -5.17998000           2.55994000          -1.29080000         
C                    -5.27324000           3.37920000          -0.54790000         
C                    -5.80252000           2.83443000           0.76934000         
H                    -4.27542000           3.84061000          -0.39172000         
H                    -5.97153000           4.14386000          -0.94589000         
H                    -5.90254000           3.66082000           1.50330000         
H                    -6.79493000           2.36340000           0.61061000         
H                    -5.10488000           2.07522000           1.17837000         
