12

C                    -6.62198000           0.29125000          -0.16121000         
C                    -6.94265000          -0.46021000          -1.21726000         
H                    -6.42462000          -0.19864000           0.78941000         
H                    -7.00491000          -1.53935000          -1.11840000         
H                    -7.14202000          -0.00815000          -2.18440000         
C                    -6.52371000           1.78715000          -0.27906000         
C                    -6.13072000           2.42422000           1.05070000         
H                    -5.75997000           2.04647000          -1.04319000         
H                    -7.50571000           2.19637000          -0.60143000         
H                    -6.06021000           3.52551000           0.92816000         
H                    -6.89222000           2.19783000           1.82662000         
H                    -5.14459000           2.04283000           1.38898000         
