48

C                    -5.30103000           1.22414000          -1.85867000         
C                    -4.63062000           0.15265000          -0.98536000         
H                    -4.67976000           1.38421000          -2.76645000         
H                    -6.28767000           0.83073000          -2.18759000         
H                    -5.28447000          -0.10698000          -0.12755000         
H                    -4.48635000          -0.77049000          -1.58531000         
C                    -5.50739000           2.59060000          -1.17486000         
C                    -6.33702000           2.51823000           0.10542000         
Al                   -2.85688000           0.68235000          -0.22848000         
H                    -4.52427000           3.05156000          -0.93671000         
H                    -6.02274000           3.26248000          -1.89453000         
H                    -6.47045000           3.54078000           0.51512000         
H                    -7.33643000           2.08140000          -0.10521000         
H                    -5.82096000           1.91005000           0.87831000         
O                    -1.59270000           0.82780000          -1.41530000         
O                    -2.42920000          -0.30490000           1.10740000         
Si                    0.97700000           2.88410000           0.36060000         
Si                    2.40160000           1.01910000          -1.82530000         
Si                   -0.61030000          -0.14290000          -2.36360000         
Si                    1.27530000           0.38990000           2.49980000         
Si                    2.89860000          -1.36480000           0.29040000         
Si                    0.07650000          -2.73160000          -0.48480000         
Si                   -1.45220000          -1.30710000           1.98150000         
O                     2.07650000           2.29450000          -0.78520000         
O                     0.93340000           0.49700000          -2.43060000         
O                    -0.53290000           3.07400000          -0.36820000         
O                     0.95690000           1.75410000           1.59110000         
O                     3.09730000          -0.22320000          -0.92810000         
O                    -0.48530000          -1.64770000          -1.62630000         
O                     2.37300000          -0.55510000           1.66040000         
O                     1.70400000          -2.42890000          -0.19740000         
O                    -0.76790000          -2.44970000           0.93310000         
O                    -0.15000000          -0.47290000           2.65610000         
O                    -1.30180000          -0.27660000          -3.89860000         
O                     3.38010000           1.45470000          -3.11780000         
O                     4.31010000          -2.22320000           0.58930000         
O                    -0.14520000          -4.29020000          -1.07370000         
O                     1.47080000           4.34990000           1.02600000         
O                     1.95670000           0.75860000           3.99260000         
O                    -2.34510000          -2.06850000           3.19210000         
H                     1.68220000           1.49840000           4.55440000         
H                    -0.91800000           2.39030000          -0.97660000         
H                     1.29450000           5.20720000           0.60980000         
H                     4.33030000           1.63190000          -3.06150000         
H                    -0.81950000          -0.56230000          -4.68970000         
H                     0.37780000          -5.05800000          -0.79930000         
H                    -1.95140000          -2.59910000           3.90070000         
H                     4.97220000          -1.97320000           1.25080000         
