12
56.268180444139944
C        1.067977       1.654689      -2.027217
C        0.655721       1.012199      -0.902244
C        0.954759      -0.344375      -0.568989
O        0.735333       2.937628      -2.277599
O        0.899176       3.779911      -1.141393
O        0.412350      -0.982400       0.305169
H        0.210018       4.451922      -1.249315
H        3.428535       0.618856      -1.618887
H        1.506189       1.216968      -2.916139
H        1.703892      -0.806228      -1.205041
H        3.503541       0.042599      -2.180862
H       -0.200923       1.618877      -0.649238
12
56.2213678671651
C        1.066703       1.657234      -2.026490
C        0.655125       1.013068      -0.901462
C        0.955058      -0.343679      -0.569610
O        0.732676       2.940325      -2.274428
O        0.897422       3.780923      -1.137338
O        0.412464      -0.982874       0.303536
H        0.206639       4.451741      -1.242061
H        3.428455       0.620767      -1.623171
H        1.505096       1.221385      -2.916127
H        1.703581      -0.804501      -1.206559
H        3.502096       0.045649      -2.184062
H       -0.201991       1.619059      -0.646731
