12
163.20451701946513
C        0.910167       1.689527      -1.934380
C        0.697203       0.977460      -0.811803
C        1.172989      -0.304590      -0.637359
O        0.522192       2.949145      -2.183162
O        1.119215       3.891990      -1.265657
O        0.652369      -1.133120       0.109994
H        0.424908       4.554446      -1.109223
H        3.053586       0.924424      -1.201582
H        1.123629       1.191670      -2.888745
H        2.052854      -0.611828      -1.197249
H        2.953160      -0.216058      -1.770178
H       -0.117487       1.608527      -0.928291
12
163.13329886712927
C        0.910144       1.689899      -1.934360
C        0.697230       0.977407      -0.811692
C        1.173162      -0.304643      -0.637587
O        0.521998       2.949564      -2.182773
O        1.119032       3.892210      -1.265191
O        0.652775      -1.133698       0.109207
H        0.424761       4.554581      -1.108348
H        3.053769       0.924587      -1.201886
H        1.123650       1.192298      -2.888851
H        2.052986      -0.611500      -1.197615
H        2.953281      -0.215531      -1.770438
H       -0.117725       1.608532      -0.928042
