12
36.25647762294648
C        1.142655       1.685510      -1.892600
C        0.624337       1.048333      -0.833030
C        0.846864      -0.351261      -0.556613
O        0.981314       2.983574      -2.183026
O        0.541099       3.769441      -1.085279
O        0.383306      -0.969758       0.368433
H        0.179841       4.556596      -1.517539
H        3.743192       0.372667      -1.741184
H        1.702076       1.230772      -2.699424
H        1.497027      -0.836658      -1.311021
H        4.036636       0.065765      -2.397480
H       -0.054853       1.643645      -0.239106
12
36.25049293959455
C        1.142062       1.686125      -1.891877
C        0.623651       1.048423      -0.832644
C        0.846336      -0.351317      -0.557003
O        0.980971       2.984332      -2.181744
O        0.540537       3.769809      -1.083823
O        0.382944      -0.970366       0.367750
H        0.178447       4.556678      -1.515905
H        3.742780       0.373642      -1.742765
H        1.701632       1.231699      -2.698768
H        1.496199      -0.836243      -1.311936
H        4.035484       0.066628      -2.399280
H       -0.055221       1.643452      -0.238025
