12
169.53379031652184
C        0.688750       1.506661      -1.987257
C        0.221701       0.293772      -1.187220
C        1.199931      -0.235951      -0.388278
O        0.248448       2.771881      -2.019350
O        0.950200       3.600637      -1.001712
O        2.401753       0.111500      -0.500079
H        0.258712       4.146836      -0.617644
H        2.063305       1.023791      -1.428133
H        1.033475       1.171979      -2.977574
H        0.948114      -0.985079       0.361355
H        1.095488      -1.180681      -1.904481
H       -0.529653       1.000784      -1.310471
12
169.4713519002362
C        0.689013       1.506852      -1.987285
C        0.221542       0.293799      -1.187466
C        1.199820      -0.236104      -0.388256
O        0.248689       2.772067      -2.019541
O        0.950113       3.600747      -1.001664
O        2.401576       0.111401      -0.499707
H        0.258550       4.146950      -0.617713
H        2.063115       1.024113      -1.427841
H        1.034074       1.172160      -2.977450
H        0.947928      -0.985324       0.361228
H        1.095244      -1.180395      -1.904316
H       -0.529856       1.000899      -1.310848
