11

H                    -4.51507000           1.85508000          -0.21751000         
C                    -5.26417000           1.95551000           0.59682000         
C                    -6.25332000           3.04513000           0.20583000         
C                    -5.96617000           0.61599000           0.80756000         
H                    -4.74297000           2.24601000           1.53096000         
H                    -6.76879000           2.77766000          -0.74167000         
H                    -5.70790000           4.00097000           0.05623000         
H                    -7.00902000           3.18613000           1.00781000         
H                    -5.22425000          -0.15827000           1.09494000         
H                    -6.71555000           0.69840000           1.62206000         
H                    -6.47433000           0.29114000          -0.12589000         
