54

C                    -5.68401000           0.51381000          -2.88139000         
C                    -4.70736000           0.75164000          -1.71917000         
C                    -3.93806000          -0.55794000          -1.41171000         
H                    -3.95661000           1.48771000          -2.09056000         
H                    -6.17663000           1.45848000          -3.18918000         
H                    -6.45650000          -0.23564000          -2.61600000         
H                    -5.12870000           0.14167000          -3.76915000         
H                    -4.59373000          -1.35766000          -1.01602000         
H                    -3.46572000          -0.93660000          -2.34379000         
C                    -5.38464000           1.36677000          -0.44463000         
C                    -5.97397000           2.75871000          -0.72080000         
C                    -6.45719000           0.45863000           0.17856000         
Ga                   -2.39303000          -0.16187000          -0.20816000         
H                    -4.60226000           1.52739000           0.32511000         
H                    -6.81683000           2.71448000          -1.43955000         
H                    -5.18815000           3.43549000          -1.11921000         
H                    -6.35642000           3.20126000           0.22426000         
H                    -6.02969000          -0.51808000           0.47913000         
H                    -6.86515000           0.93167000           1.09663000         
H                    -7.29856000           0.28867000          -0.52550000         
O                    -1.16320000           0.60070000          -1.15130000         
O                    -1.81130000          -1.32870000           0.93070000         
Si                    0.13750000           2.29740000           1.46720000         
Si                    2.01770000           2.17020000          -1.01440000         
Si                   -0.08480000           0.46230000          -2.38120000         
Si                    1.40570000          -0.47050000           2.49400000         
Si                    3.31760000          -0.43980000           0.12130000         
Si                    1.22370000          -2.12960000          -1.46190000         
Si                   -0.58650000          -2.33010000           1.08820000         
O                     0.99230000           2.66900000           0.13630000         
O                     1.12450000           1.50870000          -2.17210000         
O                    -1.41290000           2.24700000           1.21710000         
O                     0.68210000           0.94430000           2.18160000         
O                     3.04480000           1.06270000          -0.42630000         
O                     0.54090000          -1.01910000          -2.39730000         
O                     2.74940000          -0.57820000           1.61800000         
O                     2.58170000          -1.53110000          -0.81650000         
O                     0.15850000          -2.56020000          -0.32430000         
O                     0.43970000          -1.70850000           2.14680000         
O                    -0.81650000           0.77210000          -3.79110000         
O                     2.89580000           3.42120000          -1.58230000         
O                     4.91460000          -0.74090000           0.15130000         
O                     1.61000000          -3.42800000          -2.35510000         
O                     0.13170000           3.50170000           2.49060000         
O                     1.72670000          -0.54950000           4.07860000         
O                    -1.14420000          -3.75270000           1.59380000         
H                     1.57390000          -0.96130000           4.81260000         
H                    -2.18200000           2.48650000           1.52810000         
H                     0.40340000           4.25620000           2.75240000         
H                     3.61410000           3.67920000          -1.97100000         
H                    -0.73770000           0.90220000          -4.63310000         
H                     1.98590000          -3.72950000          -3.06150000         
H                    -0.97680000          -4.58740000           1.65840000         
H                     5.56000000          -1.14090000           0.54560000         
