9

C                    -4.26686000          -0.12231000          -3.90421000         
C                    -4.02016000          -1.44191000          -3.24134000         
C                    -4.95047000          -2.01181000          -2.47161000         
H                    -3.06615000          -1.94032000          -3.38476000         
H                    -3.37583000           0.17296000          -4.49464000         
H                    -4.46410000           0.65708000          -3.13790000         
H                    -5.13956000          -0.19787000          -4.58617000         
H                    -5.91041000          -1.53068000          -2.30802000         
H                    -4.75102000          -2.96512000          -1.99339000         
