12
26.273280270715986
C        1.783238       1.841702      -2.261663
C        0.325530       0.603677      -1.200497
C        1.194439      -0.546831      -0.894025
O        0.459455       1.527111      -2.444013
O        1.235952       3.101965      -1.263431
O        2.188783      -0.920648      -1.447512
H        0.765592       3.806739      -1.707290
H        2.528066       1.664898      -1.510604
H        2.105785       1.919716      -3.313220
H        0.798689      -1.078631      -0.012668
H       -0.701910       0.263116      -1.380864
H        0.293484       1.305748      -0.365915
12
24.678843437999603
C        1.781010       1.844291      -2.257427
C        0.324016       0.601601      -1.199465
C        1.196848      -0.547675      -0.896605
O        0.457365       1.525132      -2.434656
O        1.239537       3.105256      -1.269107
O        2.192101      -0.914710      -1.453469
H        0.770730       3.808775      -1.717191
H        2.525587       1.671736      -1.504807
H        2.103483       1.921922      -3.307844
H        0.803557      -1.084078      -0.016626
H       -0.702471       0.258063      -1.380326
H        0.289860       1.301559      -0.363003
