12
98.94956974418164
C        1.788247       1.697288      -2.299190
C        0.401547       0.607624      -1.220901
C        1.241925      -0.555518      -0.900801
O        0.458946       1.702703      -2.500707
O        1.080613       3.163326      -1.162056
O        2.238275      -0.959766      -1.425210
H        0.712265       3.933456      -1.587831
H        2.515800       1.609909      -1.522633
H        2.132917       1.635129      -3.351770
H        0.810627      -1.071287      -0.024803
H       -0.627310       0.293872      -1.433004
H        0.368985       1.321593      -0.391507
12
97.20707998912258
C        1.785490       1.700147      -2.296840
C        0.398918       0.606024      -1.220500
C        1.244320      -0.553363      -0.903768
O        0.454301       1.698847      -2.491718
O        1.079479       3.173857      -1.162522
O        2.242356      -0.952850      -1.428980
H        0.713254       3.942787      -1.592066
H        2.512476       1.619096      -1.519689
H        2.131994       1.634568      -3.349146
H        0.814622      -1.071677      -0.028815
H       -0.628641       0.288118      -1.433317
H        0.364189       1.319068      -0.390687
