12
12.254524205265625
C        1.511833       1.465304      -2.147564
C        0.590767       0.568433      -1.207896
C        1.289555      -0.718066      -0.885019
O        0.644611       2.529832      -2.499847
O        0.703396       3.372077      -1.305493
O        2.337795      -1.068768      -1.352553
H        0.651240       4.250362      -1.711344
H        2.389862       1.553208      -1.520392
H        1.728782       1.077048      -3.156002
H        0.746613      -1.351002      -0.151415
H       -0.394612       0.341825      -1.595778
H        0.453364       1.143824      -0.295802
12
11.820961996190817
C        1.510112       1.464615      -2.144337
C        0.592421       0.567672      -1.208071
C        1.290687      -0.719447      -0.886247
O        0.643026       2.533295      -2.496475
O        0.703418       3.378742      -1.307739
O        2.338756      -1.070073      -1.353995
H        0.649910       4.255842      -1.715966
H        2.387360       1.553621      -1.516838
H        1.727008       1.074265      -3.151989
H        0.747605      -1.352912      -0.153254
H       -0.392649       0.341881      -1.596936
H        0.455088       1.142296      -0.295302
