12
52.452221928037034
C        1.627752       1.510289      -2.189632
C        0.587302       0.594807      -1.209685
C        1.284893      -0.690984      -0.871977
O        0.560022       2.382314      -2.506044
O        0.778187       3.275108      -1.271112
O        2.299814      -1.079530      -1.379969
H        0.611824       4.137618      -1.676959
H        2.398769       1.445452      -1.447807
H        1.883653       1.264175      -3.232780
H        0.774414      -1.285523      -0.081688
H       -0.417877       0.371917      -1.535743
H        0.518293       1.220272      -0.325377
12
51.08453216726775
C        1.625999       1.509397      -2.186338
C        0.590982       0.594031      -1.210907
C        1.286872      -0.692878      -0.873579
O        0.558961       2.386102      -2.499554
O        0.776320       3.284751      -1.274017
O        2.301206      -1.082452      -1.381847
H        0.607612       4.145149      -1.682969
H        2.395556       1.444108      -1.443223
H        1.880968       1.263421      -3.228680
H        0.775686      -1.286956      -0.083393
H       -0.414088       0.372489      -1.538534
H        0.522417       1.219764      -0.326246
