12
113.45461647889351
C        1.706422       1.572683      -2.266918
C        0.547269       0.579488      -1.209703
C        1.277958      -0.677873      -0.860708
O        0.517460       2.170891      -2.537019
O        0.858229       3.294529      -1.206626
O        2.274180      -1.095173      -1.375945
H        0.609189       4.125686      -1.620126
H        2.422449       1.441121      -1.485597
H        2.016250       1.424413      -3.311749
H        0.787978      -1.231942      -0.023904
H       -0.467575       0.341653      -1.502020
H        0.514486       1.257530      -0.359989
12
113.21441165679425
C        1.706541       1.572391      -2.267236
C        0.547989       0.579884      -1.210513
C        1.278252      -0.677673      -0.861120
O        0.517630       2.171230      -2.535998
O        0.856951       3.296625      -1.206042
O        2.274215      -1.095493      -1.376455
H        0.607026       4.127476      -1.619475
H        2.422478       1.441302      -1.485750
H        2.016297       1.423759      -3.311862
H        0.788036      -1.231064      -0.024003
H       -0.466826       0.342398      -1.503144
H        0.515329       1.258373      -0.361041
