54

C                    -5.40697000           2.23864000          -1.84885000         
C                    -4.92806000           3.29124000          -1.16831000         
H                    -2.40711000           2.79840000          -0.20093000         
H                    -5.25903000           2.23756000          -2.92607000         
H                    -5.02222000           3.38798000          -0.09305000         
H                    -4.41016000           4.08381000          -1.69993000         
C                    -6.15131000           1.04910000          -1.25069000         
C                    -5.43452000          -0.26008000          -1.66647000         
C                    -6.32993000           1.14894000           0.27782000         
C                    -6.20056000          -1.52965000          -1.29377000         
Ga                   -2.31332000           1.19349000          -0.17575000         
H                    -7.16048000           1.04925000          -1.71409000         
H                    -5.30954000          -0.26488000          -2.77112000         
H                    -4.42897000          -0.32029000          -1.21418000         
H                    -6.86523000           2.08578000           0.54088000         
H                    -5.34663000           1.13336000           0.79430000         
H                    -6.94631000           0.31499000           0.66682000         
H                    -5.64050000          -2.41506000          -1.66755000         
H                    -6.29732000          -1.63872000          -0.19452000         
H                    -7.20550000          -1.52159000          -1.76064000         
O                    -1.20560000           0.72860000          -1.47480000         
O                    -1.79120000           0.77880000           1.42160000         
Si                    1.98510000           2.55470000          -0.62190000         
Si                    2.63630000          -0.16380000          -2.23060000         
Si                   -0.59430000          -0.69310000          -2.13850000         
Si                    2.19200000           0.83970000           2.16680000         
Si                    2.97260000          -1.84770000           0.48600000         
Si                   -0.17450000          -2.61770000           0.46490000         
Si                   -0.90220000          -0.15250000           2.44940000         
O                     2.70610000           1.39250000          -1.61620000         
O                     1.02350000          -0.49550000          -2.51370000         
O                     0.39210000           2.79010000          -1.11690000         
O                     2.08870000           1.97220000           0.94130000         
O                     3.22150000          -1.22120000          -1.05670000         
O                    -0.68640000          -1.86860000          -0.93890000         
O                     2.88790000          -0.55300000           1.54680000         
O                     1.50620000          -2.64640000           0.48140000         
O                    -0.67860000          -1.68480000           1.75760000         
O                     0.65430000           0.45530000           2.68700000         
O                    -1.50050000          -1.12120000          -3.49380000         
O                     3.49620000          -0.34490000          -3.66170000         
O                     4.18850000          -2.91910000           0.92820000         
O                    -0.80260000          -4.17650000           0.48890000         
O                     2.82570000           4.01560000          -0.64430000         
O                     3.14960000           1.41130000           3.42810000         
O                    -1.66760000          -0.27880000           3.94990000         
H                     3.36210000           2.34790000           3.55710000         
H                    -0.21810000           2.03470000          -1.37460000         
H                     2.83950000           4.60950000          -1.40980000         
H                     4.42830000          -0.60270000          -3.71240000         
H                    -1.26700000          -1.83010000          -4.11220000         
H                    -0.48290000          -4.88780000           1.06340000         
H                    -1.19510000          -0.52640000           4.75970000         
H                     4.98180000          -2.66760000           1.42410000         
