54

C                    -2.98427000           4.29234000          -0.65378000         
C                    -2.34247000           4.35329000           0.51103000         
H                    -4.06869000           4.27711000          -0.68025000         
H                    -2.42631000           4.24937000          -1.58369000         
H                    -2.90014000           4.38869000           1.44098000         
H                    -1.25781000           4.36169000           0.53837000         
C                    -6.19947000           1.44700000          -2.44138000         
C                    -5.26834000           0.65824000          -2.98579000         
C                    -6.32124000           1.66511000          -0.96200000         
C                    -3.50637000          -0.89870000          -0.14808000         
Ga                   -2.43424000           0.84287000          -0.19049000         
H                    -6.90092000           1.95469000          -3.09057000         
H                    -5.22778000           0.54104000          -4.06727000         
H                    -4.54384000           0.12531000          -2.39133000         
H                    -6.20515000           2.74397000          -0.73279000         
H                    -5.55869000           1.12319000          -0.37800000         
H                    -7.32463000           1.32956000          -0.61921000         
H                    -3.15654000          -1.62576000          -0.90422000         
H                    -3.36114000          -1.35530000           0.85305000         
H                    -4.59446000          -0.78896000          -0.28077000         
O                    -1.20560000           0.72860000          -1.47480000         
O                    -1.79120000           0.77880000           1.42160000         
Si                    1.98510000           2.55470000          -0.62190000         
Si                    2.63630000          -0.16380000          -2.23060000         
Si                   -0.59430000          -0.69310000          -2.13850000         
Si                    2.19200000           0.83970000           2.16680000         
Si                    2.97260000          -1.84770000           0.48600000         
Si                   -0.17450000          -2.61770000           0.46490000         
Si                   -0.90220000          -0.15250000           2.44940000         
O                     2.70610000           1.39250000          -1.61620000         
O                     1.02350000          -0.49550000          -2.51370000         
O                     0.39210000           2.79010000          -1.11690000         
O                     2.08870000           1.97220000           0.94130000         
O                     3.22150000          -1.22120000          -1.05670000         
O                    -0.68640000          -1.86860000          -0.93890000         
O                     2.88790000          -0.55300000           1.54680000         
O                     1.50620000          -2.64640000           0.48140000         
O                    -0.67860000          -1.68480000           1.75760000         
O                     0.65430000           0.45530000           2.68700000         
O                    -1.50050000          -1.12120000          -3.49380000         
O                     3.49620000          -0.34490000          -3.66170000         
O                     4.18850000          -2.91910000           0.92820000         
O                    -0.80260000          -4.17650000           0.48890000         
O                     2.82570000           4.01560000          -0.64430000         
O                     3.14960000           1.41130000           3.42810000         
O                    -1.66760000          -0.27880000           3.94990000         
H                     3.36210000           2.34790000           3.55710000         
H                    -0.21810000           2.03470000          -1.37460000         
H                     2.83950000           4.60950000          -1.40980000         
H                     4.42830000          -0.60270000          -3.71240000         
H                    -1.26700000          -1.83010000          -4.11220000         
H                    -0.48290000          -4.88780000           1.06340000         
H                    -1.19510000          -0.52640000           4.75970000         
H                     4.98180000          -2.66760000           1.42410000         
