11

C                    -7.12736000          -0.05066000           0.43723000         
H                    -6.35986000          -0.76945000           0.79552000         
H                    -7.59492000          -0.46086000          -0.48119000         
H                    -7.90473000           0.05160000           1.22375000         
C                    -6.50493000           1.31180000           0.13143000         
C                    -5.80565000           1.88860000           1.35810000         
H                    -5.77084000           1.21597000          -0.69197000         
H                    -7.30249000           2.00931000          -0.20162000         
H                    -5.36339000           2.87515000           1.10567000         
H                    -6.52922000           2.02391000           2.18896000         
H                    -4.98986000           1.21102000           1.69277000         
