18

C                    -6.27063000          -1.51528000           0.86245000         
C                    -5.37465000          -2.60076000           0.27101000         
C                    -5.69356000          -0.16018000           0.56956000         
C                    -6.35544000           0.76674000          -0.14324000         
H                    -7.29159000          -1.61959000           0.43268000         
H                    -6.33555000          -1.65034000           1.96223000         
H                    -4.70248000           0.04866000           0.95105000         
H                    -4.35151000          -2.53999000           0.70278000         
H                    -5.30877000          -2.48532000          -0.83269000         
H                    -5.79747000          -3.60152000           0.49904000         
H                    -7.35280000           0.54913000          -0.51490000         
C                    -5.75110000           2.10575000          -0.47953000         
C                    -5.37099000           2.91288000           0.76021000         
H                    -4.85094000           1.95375000          -1.10841000         
H                    -6.48361000           2.68936000          -1.07675000         
H                    -4.94128000           3.88801000           0.44656000         
H                    -6.26633000           3.09852000           1.38796000         
H                    -4.60518000           2.37976000           1.36235000         
