12
33.98955276768902
C        0.789037       1.894306      -1.030355
C       -0.063873       0.998610      -0.559969
C        1.826359      -0.706754      -1.802526
O        0.552177       2.533922      -2.206575
O        1.663086       3.336464      -2.581542
O        2.518877      -0.990023      -0.870757
H        1.270263       3.978529      -3.187917
H        1.705311       2.179572      -0.532342
H        2.127780       0.023571      -2.569962
H        0.851682      -1.186130      -1.988282
H       -0.967885       0.755953      -1.088693
H        0.116187       0.521779       0.383009
12
33.98942511343739
C        0.789008       1.894303      -1.030270
C       -0.063893       0.998585      -0.559907
C        1.826349      -0.706647      -1.802592
O        0.552163       2.533909      -2.206497
O        1.663123       3.336366      -2.581500
O        2.518916      -0.990001      -0.870765
H        1.270328       3.978382      -3.188117
H        1.705287       2.179543      -0.532265
H        2.127780       0.023740      -2.569996
H        0.851660      -1.186030      -1.988407
H       -0.967903       0.755945      -1.088635
H        0.116183       0.521705       0.383041
