12
31.05325731931407
C        1.189030       1.633050      -1.376606
C        0.334124       0.537801      -0.795081
C        1.299744      -0.629905      -1.166970
O        0.516518       2.608873      -2.129348
O        1.476646       3.471440      -2.732151
O        1.761779      -1.278044      -0.268913
H        0.921261       4.171607      -3.101452
H        2.067688       1.957698      -0.829197
H        1.673358       0.987175      -2.257284
H        0.962125      -1.056068      -2.120683
H       -0.588801       0.393563      -1.338646
H        0.290063       0.405219       0.280831
12
30.976604163097363
C        1.189180       1.632968      -1.376726
C        0.334142       0.537620      -0.795106
C        1.299487      -0.629996      -1.167041
O        0.516582       2.608834      -2.129404
O        1.476711       3.471301      -2.732306
O        1.762360      -1.278062      -0.269329
H        0.921321       4.171352      -3.101785
H        2.067685       1.957725      -0.829101
H        1.673528       0.987379      -2.256843
H        0.961881      -1.056288      -2.120782
H       -0.588878       0.393699      -1.338633
H        0.290017       0.405283       0.280852
