12
45.49893361941031
C        1.525613       1.341624      -2.778830
C        0.529057       0.422604      -2.089153
C        1.183018       0.339762      -0.720463
O        1.745245       2.304000      -1.790562
O        2.032859       1.529126      -0.646214
O        1.562320      -0.584284      -0.086511
H        1.068088       2.179791       0.947334
H        2.451948       0.815964      -3.050027
H        1.125831       1.846235      -3.659258
H        0.073801       2.004057       0.324301
H        0.429052      -0.547791      -2.570229
H       -0.454058       0.891810      -2.018905
12
45.17907807853953
C        1.525602       1.341612      -2.779377
C        0.528986       0.422749      -2.089444
C        1.182766       0.340366      -0.720475
O        1.744995       2.303954      -1.790851
O        2.032297       1.528526      -0.646959
O        1.561479      -0.583790      -0.086197
H        1.067421       2.178545       0.946937
H        2.451945       0.815968      -3.050505
H        1.125871       1.846056      -3.659916
H        0.074697       2.003750       0.327019
H        0.428940      -0.547786      -2.570182
H       -0.454047       0.892214      -2.019666
