12
40.405956050110035
C        1.479467       1.373011      -2.709918
C        0.413994       0.430983      -2.108361
C        0.920446       0.294278      -0.670448
O        1.692517       2.410614      -1.790011
O        1.990676       1.803802      -0.560760
O        1.418970      -0.581618      -0.049531
H        1.546434       2.302453       0.245629
H        2.410834       0.834160      -2.887315
H        1.151822       1.854912      -3.632461
H        0.071823       1.268644      -0.066907
H        0.355607      -0.528625      -2.634802
H       -0.565099       0.916941      -2.107377
12
39.743155211348494
C        1.480013       1.375273      -2.707542
C        0.414799       0.432387      -2.106253
C        0.918903       0.295865      -0.666783
O        1.693725       2.412322      -1.786671
O        1.990431       1.804427      -0.558007
O        1.414703      -0.580659      -0.044140
H        1.544517       2.296014       0.243761
H        2.411233       0.836463      -2.885710
H        1.152273       1.857939      -3.629620
H        0.073507       1.265181      -0.066090
H        0.357822      -0.527466      -2.632319
H       -0.564419       0.918076      -2.106755
