12
0.0
C        1.461446       1.414902      -2.450420
C        0.272532       0.545865      -2.000529
C        0.545180       0.016880      -0.613914
O        1.539441       2.632026      -1.766354
O        1.895956       2.384982      -0.404535
O        1.317327      -0.867763      -0.376515
H        2.084975       3.274074      -0.076516
H        2.393300       0.848082      -2.334933
H        1.338878       1.724855      -3.490977
H       -0.015392       0.521101       0.193485
H        0.196797      -0.292888      -2.693146
H       -0.641350       1.137794      -2.021557
12
-1.4489192835753784e-05
C        1.461437       1.414908      -2.450422
C        0.272534       0.545852      -2.000534
C        0.545187       0.016894      -0.613911
O        1.539441       2.632035      -1.766344
O        1.895962       2.384973      -0.404520
O        1.317301      -0.867740      -0.376499
H        2.085001       3.274061      -0.076518
H        2.393291       0.848100      -2.334943
H        1.338866       1.724866      -3.490974
H       -0.015391       0.521109       0.193467
H        0.196807      -0.292913      -2.693143
H       -0.641346       1.137764      -2.021569
