12
77.6836995246158
C        1.511532       1.350846      -2.743878
C        0.465450       0.439353      -2.077078
C        1.043717       0.338151      -0.683289
O        1.719326       2.362128      -1.799399
O        2.005553       1.642136      -0.622946
O        1.492491      -0.566712      -0.068092
H        1.309410       2.189622       0.549402
H        2.441705       0.802249      -2.938719
H        1.162767       1.816871      -3.664768
H        0.072466       1.537078       0.166426
H        0.396927      -0.531989      -2.563079
H       -0.515888       0.910502      -2.059547
12
77.60618765933577
C        1.511567       1.351136      -2.743900
C        0.465377       0.439737      -2.077007
C        1.043543       0.338409      -0.683213
O        1.719544       2.362431      -1.799348
O        2.005558       1.642148      -0.623042
O        1.491984      -0.566567      -0.067900
H        1.308593       2.188636       0.549132
H        2.441653       0.802415      -2.938744
H        1.162785       1.817157      -3.664770
H        0.072337       1.536817       0.166421
H        0.397024      -0.531621      -2.562980
H       -0.515970       0.910809      -2.059648
12
77.52873763511525
C        1.511600       1.351427      -2.743919
C        0.465302       0.440121      -2.076937
C        1.043364       0.338666      -0.683135
O        1.719761       2.362735      -1.799297
O        2.005561       1.642167      -0.623136
O        1.491472      -0.566420      -0.067706
H        1.307787       2.187655       0.548843
H        2.441599       0.802581      -2.938765
H        1.162803       1.817443      -3.664770
H        0.072210       1.536538       0.166407
H        0.397120      -0.531254      -2.562883
H       -0.516054       0.911116      -2.059752
