54

C                    -4.51714000          -0.85078000           0.27012000         
C                    -5.42395000          -2.02968000          -0.08084000         
C                    -3.62304000          -0.40111000          -0.90345000         
C                    -4.43241000           0.22627000          -2.04181000         
H                    -5.12066000           0.00330000           0.64405000         
H                    -3.87500000          -1.20236000           1.09390000         
H                    -3.06212000          -1.27870000          -1.29029000         
H                    -4.81054000          -2.89377000          -0.41878000         
H                    -6.15380000          -1.76512000          -0.87008000         
H                    -5.99000000          -2.33943000           0.82348000         
H                    -3.75478000           0.53605000          -2.86429000         
H                    -5.15723000          -0.49988000          -2.46547000         
C                    -3.92425000           4.08392000           0.19752000         
C                    -4.29628000           3.42660000           1.29362000         
Ga                   -2.20840000           0.92456000          -0.29026000         
H                    -3.18279000           4.87324000           0.25791000         
H                    -4.35817000           3.82987000          -0.76469000         
H                    -4.98458000           1.11773000          -1.67704000         
H                    -5.03469000           2.63453000           1.23152000         
H                    -3.85973000           3.67694000           2.25537000         
O                    -0.87770000           0.86370000          -1.44290000         
O                    -1.67910000           0.46810000           1.30850000         
Si                    1.47950000           2.57020000           0.57870000         
Si                    2.65470000           0.82920000          -1.90310000         
Si                   -0.27540000          -0.17650000          -2.54720000         
Si                    1.83200000          -0.02460000           2.59190000         
Si                    3.08210000          -1.67890000           0.13560000         
Si                    0.07730000          -2.68830000          -0.58700000         
Si                   -1.15050000          -0.95720000           1.92190000         
O                     2.14760000           2.03110000          -0.83710000         
O                     1.36010000           0.24580000          -2.79260000         
O                    -0.22790000           2.87690000           0.41590000         
O                     1.67790000           1.41560000           1.73960000         
O                     3.25740000          -0.40930000          -0.94830000         
O                    -0.25860000          -1.76920000          -1.95480000         
O                     2.82900000          -0.99320000           1.65270000         
O                     1.73070000          -2.54800000          -0.30020000         
O                    -0.74880000          -2.07090000           0.71560000         
O                     0.31870000          -0.71410000           2.75670000         
O                    -1.11330000          -0.16090000          -4.01310000         
O                     3.83580000           1.50490000          -2.88870000         
O                     4.41280000          -2.70190000           0.14640000         
O                    -0.35400000          -4.30320000          -0.78410000         
O                     1.96170000           4.12540000           1.00150000         
O                     2.54170000           0.27120000           4.08620000         
O                    -2.28620000          -1.64670000           2.96440000         
H                     2.15700000          -0.00390000           4.93160000         
H                    -0.49970000           3.79910000           0.58150000         
H                     2.86610000           4.46200000           1.07260000         
H                     3.99930000           1.23900000          -3.80560000         
H                    -1.08030000          -0.88350000          -4.65800000         
H                     0.15580000          -4.94120000          -1.30530000         
H                    -2.22980000          -2.56140000           3.28030000         
H                     5.24250000          -2.52450000           0.61310000         
