54

C                    -4.42252000          -1.63966000           0.66366000         
C                    -4.68996000          -3.02810000           1.15609000         
C                    -3.98219000          -1.43022000          -0.58106000         
C                    -3.73898000          -0.05218000          -1.11048000         
H                    -5.71845000           2.73156000          -0.59570000         
H                    -4.60178000          -0.79929000           1.32808000         
H                    -3.82356000          -2.27751000          -1.24537000         
H                    -3.75770000          -3.62993000           1.12463000         
H                    -5.46232000          -3.51062000           0.51943000         
H                    -5.06257000          -2.99152000           2.20004000         
H                    -3.47772000          -0.13704000          -2.18585000         
H                    -4.66894000           0.54678000          -1.03576000         
C                    -5.04267000           3.50193000          -0.16917000         
C                    -4.91283000           3.29925000           1.33094000         
Ga                   -2.19067000           0.96033000          -0.29361000         
H                    -4.04616000           3.42030000          -0.65081000         
H                    -5.46113000           4.50832000          -0.37914000         
H                    -5.91042000           3.38867000           1.80942000         
H                    -4.49939000           2.29060000           1.54384000         
H                    -4.23377000           4.06727000           1.75665000         
O                    -0.87770000           0.86370000          -1.44290000         
O                    -1.67910000           0.46810000           1.30850000         
Si                    1.47950000           2.57020000           0.57870000         
Si                    2.65470000           0.82920000          -1.90310000         
Si                   -0.27540000          -0.17650000          -2.54720000         
Si                    1.83200000          -0.02460000           2.59190000         
Si                    3.08210000          -1.67890000           0.13560000         
Si                    0.07730000          -2.68830000          -0.58700000         
Si                   -1.15050000          -0.95720000           1.92190000         
O                     2.14760000           2.03110000          -0.83710000         
O                     1.36010000           0.24580000          -2.79260000         
O                    -0.22790000           2.87690000           0.41590000         
O                     1.67790000           1.41560000           1.73960000         
O                     3.25740000          -0.40930000          -0.94830000         
O                    -0.25860000          -1.76920000          -1.95480000         
O                     2.82900000          -0.99320000           1.65270000         
O                     1.73070000          -2.54800000          -0.30020000         
O                    -0.74880000          -2.07090000           0.71560000         
O                     0.31870000          -0.71410000           2.75670000         
O                    -1.11330000          -0.16090000          -4.01310000         
O                     3.83580000           1.50490000          -2.88870000         
O                     4.41280000          -2.70190000           0.14640000         
O                    -0.35400000          -4.30320000          -0.78410000         
O                     1.96170000           4.12540000           1.00150000         
O                     2.54170000           0.27120000           4.08620000         
O                    -2.28620000          -1.64670000           2.96440000         
H                     2.15700000          -0.00390000           4.93160000         
H                    -0.49970000           3.79910000           0.58150000         
H                     2.86610000           4.46200000           1.07260000         
H                     3.99930000           1.23900000          -3.80560000         
H                    -1.08030000          -0.88350000          -4.65800000         
H                     0.15580000          -4.94120000          -1.30530000         
H                    -2.22980000          -2.56140000           3.28030000         
H                     5.24250000          -2.52450000           0.61310000         
