54

C                    -6.05759000           0.38228000           1.89166000         
C                    -6.00316000          -1.00165000           1.24697000         
C                    -3.40247000          -0.43418000          -1.11500000         
C                    -4.42893000          -0.08262000          -1.88863000         
H                    -7.03363000           0.49484000           2.40966000         
H                    -5.23928000           0.45446000           2.63949000         
H                    -3.17890000          -1.48482000          -0.96173000         
H                    -5.01272000          -1.17529000           0.78770000         
H                    -6.79342000          -1.10816000           0.47335000         
H                    -6.15117000          -1.78143000           2.02223000         
H                    -5.05374000          -0.84434000          -2.34266000         
H                    -4.64268000           0.96275000          -2.08706000         
C                    -5.91326000           1.49804000           0.85010000         
C                    -5.92653000           2.87644000           1.49984000         
Ga                   -2.19139000           0.92044000          -0.31619000         
H                    -4.95268000           1.39070000           0.32343000         
H                    -6.73836000           1.43211000           0.10755000         
H                    -5.81098000           3.65585000           0.71689000         
H                    -6.89001000           3.04236000           2.03473000         
H                    -5.08639000           2.96907000           2.21975000         
O                    -0.87770000           0.86370000          -1.44290000         
O                    -1.67910000           0.46810000           1.30850000         
Si                    1.47950000           2.57020000           0.57870000         
Si                    2.65470000           0.82920000          -1.90310000         
Si                   -0.27540000          -0.17650000          -2.54720000         
Si                    1.83200000          -0.02460000           2.59190000         
Si                    3.08210000          -1.67890000           0.13560000         
Si                    0.07730000          -2.68830000          -0.58700000         
Si                   -1.15050000          -0.95720000           1.92190000         
O                     2.14760000           2.03110000          -0.83710000         
O                     1.36010000           0.24580000          -2.79260000         
O                    -0.22790000           2.87690000           0.41590000         
O                     1.67790000           1.41560000           1.73960000         
O                     3.25740000          -0.40930000          -0.94830000         
O                    -0.25860000          -1.76920000          -1.95480000         
O                     2.82900000          -0.99320000           1.65270000         
O                     1.73070000          -2.54800000          -0.30020000         
O                    -0.74880000          -2.07090000           0.71560000         
O                     0.31870000          -0.71410000           2.75670000         
O                    -1.11330000          -0.16090000          -4.01310000         
O                     3.83580000           1.50490000          -2.88870000         
O                     4.41280000          -2.70190000           0.14640000         
O                    -0.35400000          -4.30320000          -0.78410000         
O                     1.96170000           4.12540000           1.00150000         
O                     2.54170000           0.27120000           4.08620000         
O                    -2.28620000          -1.64670000           2.96440000         
H                     2.15700000          -0.00390000           4.93160000         
H                    -0.49970000           3.79910000           0.58150000         
H                     2.86610000           4.46200000           1.07260000         
H                     3.99930000           1.23900000          -3.80560000         
H                    -1.08030000          -0.88350000          -4.65800000         
H                     0.15580000          -4.94120000          -1.30530000         
H                    -2.22980000          -2.56140000           3.28030000         
H                     5.24250000          -2.52450000           0.61310000         
