12

C                     2.12970000           0.11466000          -3.01917000         
C                     1.94708000           0.86751000          -1.73633000         
C                     0.76899000           0.92426000          -1.10918000         
O                    -0.50505000           1.82336000           0.57441000         
O                    -0.70482000           3.12416000           0.48600000         
O                     0.65393000           1.63438000           0.03207000         
H                    -1.15585000           3.25922000          -0.38774000         
H                     2.91777000          -0.65435000          -2.88465000         
H                     2.44582000           0.82418000          -3.81195000         
H                    -0.10160000           0.41633000          -1.51783000         
H                     1.19221000          -0.38573000          -3.34406000         
H                     2.80093000           1.39222000          -1.31738000         
