12

C                     1.32091000           1.17116000          -2.44563000         
C                     0.63037000           1.60326000          -1.15872000         
C                     1.56018000          -1.76347000          -0.32706000         
O                    -0.42538000           2.49000000          -1.44905000         
O                     0.00427000           3.70858000          -1.17347000         
O                     2.62431000          -1.61755000           0.01894000         
H                     0.16155000           4.13057000          -2.05643000         
H                     2.13491000           0.45268000          -2.21312000         
H                     1.75857000           2.05258000          -2.95946000         
H                     0.20473000           0.71448000          -0.64968000         
H                     0.59091000           0.67837000          -3.12230000         
H                     1.38147000           2.03818000          -0.45678000         
