12

C                     1.32082000           0.37853000          -2.65349000         
C                     0.57504000           0.55897000          -1.55858000         
C                     0.77917000          -0.25179000          -0.33347000         
O                    -0.38305000           1.50678000          -1.59481000         
O                    -0.24823000           2.61131000          -0.93639000         
O                     1.63670000          -1.11973000          -0.28414000         
H                    -0.10592000           3.29220000          -1.64582000         
H                     2.11092000          -0.36233000          -2.69090000         
H                     2.63246000           3.05291000          -1.98624000         
H                     0.14540000          -0.08975000           0.53265000         
H                     1.14621000           0.99832000          -3.52815000         
H                     2.77958000           2.76478000          -1.35645000         
