12

C                     1.50531000           1.34650000          -2.86235000         
C                     1.01521000           2.30280000          -1.77931000         
C                     0.59776000          -0.34471000           0.08729000         
O                     0.10497000           1.66232000          -0.91821000         
O                     0.81164000           0.97731000          -0.07251000         
O                     1.27359000          -0.97768000           0.88091000         
H                     0.49078000           3.15269000          -2.26489000         
H                     2.05772000           0.49777000          -2.40707000         
H                     2.18700000           1.88364000          -3.55478000         
H                    -0.17073000          -0.85134000          -0.48858000         
H                     0.64234000           0.95165000          -3.43913000         
H                     1.87351000           2.73926000          -1.21719000         
