12

C                     2.29673000           0.00549000          -2.68692000         
C                     0.60181000           1.61335000          -0.92799000         
C                     0.69706000           0.27734000          -0.85937000         
O                    -0.28529000           2.26696000          -0.14480000         
O                    -0.35012000           3.55858000          -0.15607000         
O                     1.56352000          -0.45583000          -1.61239000         
H                    -0.92557000           3.78412000          -0.93192000         
H                     2.95352000          -0.80962000          -3.05376000         
H                     2.93811000           0.86343000          -2.39486000         
H                     0.05907000          -0.25572000          -0.16115000         
H                     1.60954000           0.30315000          -3.50778000         
H                     1.23071000           2.18896000          -1.59879000         
