12

C                     1.67801000           0.57909000          -2.74857000         
C                     0.52497000           0.98398000          -0.41936000         
C                     1.56552000           0.31097000          -1.27546000         
O                    -0.30749000           1.82916000          -1.18292000         
O                     0.07941000           3.07106000          -0.95067000         
O                     2.33579000          -0.48056000          -0.75342000         
H                     0.47784000           3.37878000          -1.80423000         
H                     2.50013000          -0.02080000          -3.19465000         
H                     1.89281000           1.65371000          -2.92132000         
H                    -0.11371000           0.20571000           0.04849000         
H                     0.72721000           0.30692000          -3.25266000         
H                     1.02862000           1.52218000           0.41896000         
