12

C                     1.68118000           1.33192000          -2.81101000         
C                     1.41702000           1.27763000          -1.30843000         
C                     0.31364000           0.37755000          -0.93932000         
O                     0.93221000           2.46823000          -0.81185000         
O                     0.41769000           2.13175000           0.37519000         
O                    -0.06581000           0.88091000           0.30053000         
H                    -0.55556000           0.49870000          -1.62422000         
H                     2.01938000           0.33763000          -3.17254000         
H                     2.47623000           2.07764000          -3.02236000         
H                     0.63980000          -0.68352000          -0.90063000         
H                     0.76278000           1.62657000          -3.36286000         
H                     2.35056000           1.01519000          -0.75830000         
