12

C                     2.46664000           0.99205000          -2.10604000         
C                     1.83451000           0.90259000          -0.93121000         
C                     1.33845000          -0.37796000          -0.38910000         
O                    -1.21901000           2.06998000          -2.47421000         
O                    -0.68258000           2.85819000          -1.56560000         
O                     1.49050000          -1.42690000          -0.99523000         
H                    -0.18399000           3.54064000          -2.08390000         
H                     2.64746000           0.11568000          -2.72071000         
H                     2.80897000           1.95801000          -2.46302000         
H                     0.82680000          -0.38523000           0.56750000         
H                    -0.61215000           1.28766000          -2.52363000         
H                     1.67352000           1.80548000          -0.35065000         
