49

C                    -6.22006000          -0.28670000          -1.59293000         
C                    -5.26040000          -0.63510000          -0.73223000         
C                    -3.82932000          -0.76375000          -1.15563000         
H                    -5.52064000          -0.84018000           0.30136000         
H                    -6.49731000           1.21615000           1.46484000         
H                    -7.24833000          -0.20708000          -1.25580000         
H                    -5.99425000          -0.08113000          -2.63522000         
H                    -3.70117000          -0.54196000          -2.23713000         
H                    -3.48888000          -1.80363000          -0.97217000         
C                    -5.84608000           2.05884000           1.25988000         
C                    -4.89390000           2.39627000           2.12589000         
Ga                   -2.63397000           0.47339000          -0.12324000         
H                    -5.97399000           2.62226000           0.34147000         
H                    -4.24038000           3.23726000           1.92113000         
H                    -4.76390000           1.82906000           3.04304000         
O                    -1.35350000           0.89010000          -1.27340000         
O                    -2.15750000          -0.44070000           1.31580000         
Si                    1.25430000           2.85950000           0.42320000         
Si                    2.56760000           1.07320000          -1.91250000         
Si                   -0.45820000          -0.07670000          -2.31050000         
Si                    1.68570000           0.29120000           2.44160000         
Si                    3.19510000          -1.37380000           0.08690000         
Si                    0.33640000          -2.73230000          -0.56600000         
Si                   -1.06250000          -1.43200000           2.04260000         
O                     2.28220000           2.28880000          -0.79740000         
O                     1.08250000           0.55130000          -2.47890000         
O                    -0.28440000           3.08980000          -0.21760000         
O                     1.31380000           1.69870000           1.62520000         
O                     3.32360000          -0.20050000          -1.11030000         
O                    -0.30320000          -1.59840000          -1.61550000         
O                     2.75000000          -0.60330000           1.50660000         
O                     1.97540000          -2.42850000          -0.35900000         
O                    -0.44250000          -2.52070000           0.89820000         
O                     0.28480000          -0.60000000           2.61840000         
O                    -1.25670000          -0.18360000          -3.79540000         
O                     3.47890000           1.57780000          -3.22990000         
O                     4.62040000          -2.24120000           0.27880000         
O                     0.10400000          -4.26710000          -1.21250000         
O                     1.80720000           4.30420000           1.09240000         
O                     2.42810000           0.60210000           3.91980000         
O                    -1.80760000          -2.26470000           3.30790000         
H                     2.25400000           1.38800000           4.45910000         
H                    -0.72820000           2.40140000          -0.78360000         
H                     1.57220000           5.17140000           0.72890000         
H                     4.43070000           1.75440000          -3.20890000         
H                    -0.82510000          -0.44050000          -4.62480000         
H                     0.69260000          -5.01910000          -1.04910000         
H                    -1.31420000          -2.78020000           3.96400000         
H                     5.32920000          -1.99660000           0.89220000         
