54

C                     3.08131000           2.09603000           1.37087000         
C                     2.93639000           2.24192000           2.68742000         
H                     5.13874000           0.87455000          -0.58897000         
H                     3.51526000           2.89690000           0.78148000         
H                     3.25366000           3.16009000           3.17103000         
H                     2.49967000           1.45305000           3.29147000         
C                     5.86257000           0.15519000          -1.01980000         
C                     7.05802000           0.06814000          -0.06753000         
C                     5.18922000          -1.21744000          -1.16542000         
C                     6.28496000           0.69149000          -2.38920000         
Ga                    2.50818000           0.43979000           0.44439000         
H                     7.82353000          -0.63433000          -0.45978000         
H                     7.51906000           1.07116000           0.05869000         
H                     6.72301000          -0.28522000           0.93360000         
H                     4.29688000          -1.13913000          -1.82290000         
H                     5.89489000          -1.95325000          -1.60468000         
H                     4.85791000          -1.59007000          -0.17356000         
H                     6.73916000           1.69971000          -2.28074000         
H                     7.02188000           0.01208000          -2.86767000         
H                     5.39675000           0.78372000          -3.05149000         
O                     1.95760000          -0.69610000           1.63510000         
O                     1.31680000           0.86000000          -0.80570000         
Si                   -1.47700000           2.76910000           0.78480000         
Si                   -2.11190000          -0.05600000           2.33510000         
Si                    0.68780000          -1.71680000           1.98330000         
Si                   -2.46220000           1.36520000          -1.93260000         
Si                   -3.28410000          -1.36750000          -0.41990000         
Si                   -0.38480000          -2.65870000          -0.95940000         
Si                    0.58450000           0.19070000          -2.16050000         
O                    -1.85660000           1.50660000           1.82790000         
O                    -0.64720000          -0.83910000           2.51650000         
O                     0.16930000           2.83890000           0.45850000         
O                    -2.31290000           2.44040000          -0.65240000         
O                    -2.96190000          -0.87060000           1.13710000         
O                     0.20320000          -2.52900000           0.59660000         
O                    -3.24290000          -0.02710000          -1.43310000         
O                    -2.04580000          -2.39730000          -0.90100000         
O                     0.31620000          -1.44830000          -1.88150000         
O                    -0.90250000           0.92580000          -2.37810000         
O                     1.09590000          -2.90000000           3.12010000         
O                    -2.98550000           0.01410000           3.77230000         
O                    -4.78450000          -2.11920000          -0.46350000         
O                    -0.01200000          -4.12950000          -1.68120000         
O                    -1.95580000           4.23350000           1.46010000         
O                    -3.32760000           2.04060000          -3.20390000         
O                     1.59800000           0.37730000          -3.49840000         
H                    -2.62390000           4.30380000           2.15860000         
H                    -3.40190000          -0.75170000           4.19530000         
H                     1.54990000          -2.70940000           3.95440000         
H                    -0.24030000          -4.99580000          -1.31260000         
H                     1.43000000          -0.01680000          -4.36810000         
H                    -5.32700000          -2.21640000          -1.26000000         
H                    -3.38440000           2.99190000          -3.37790000         
H                     0.62080000           2.14890000          -0.11530000         
