54

C                     3.05964000           2.14909000           1.36126000         
C                     4.40080000           2.02204000           2.06309000         
H                     3.11647000           2.95467000           0.59828000         
H                     2.27867000           2.41290000           2.10513000         
H                     4.65276000           2.98543000           2.55492000         
H                     4.35456000           1.22521000           2.83501000         
C                     5.46552000          -0.90973000          -0.92477000         
C                     6.08532000          -0.86990000           0.26557000         
C                     4.68154000          -2.12419000          -1.34242000         
C                     5.53376000           0.26239000          -1.86659000         
Ga                    2.51397000           0.44600000           0.44224000         
H                     5.19259000           1.78275000           1.32639000         
H                     6.65259000           0.00280000           0.57331000         
H                     6.03619000          -1.70898000           0.95103000         
H                     3.62526000          -1.84144000          -1.53005000         
H                     5.11404000          -2.53975000          -2.27675000         
H                     4.69790000          -2.91730000          -0.56451000         
H                     6.12615000           1.10303000          -1.44529000         
H                     6.00152000          -0.05565000          -2.82111000         
H                     4.50760000           0.63208000          -2.07581000         
O                     1.95760000          -0.69610000           1.63510000         
O                     1.31680000           0.86000000          -0.80570000         
Si                   -1.47700000           2.76910000           0.78480000         
Si                   -2.11190000          -0.05600000           2.33510000         
Si                    0.68780000          -1.71680000           1.98330000         
Si                   -2.46220000           1.36520000          -1.93260000         
Si                   -3.28410000          -1.36750000          -0.41990000         
Si                   -0.38480000          -2.65870000          -0.95940000         
Si                    0.58450000           0.19070000          -2.16050000         
O                    -1.85660000           1.50660000           1.82790000         
O                    -0.64720000          -0.83910000           2.51650000         
O                     0.16930000           2.83890000           0.45850000         
O                    -2.31290000           2.44040000          -0.65240000         
O                    -2.96190000          -0.87060000           1.13710000         
O                     0.20320000          -2.52900000           0.59660000         
O                    -3.24290000          -0.02710000          -1.43310000         
O                    -2.04580000          -2.39730000          -0.90100000         
O                     0.31620000          -1.44830000          -1.88150000         
O                    -0.90250000           0.92580000          -2.37810000         
O                     1.09590000          -2.90000000           3.12010000         
O                    -2.98550000           0.01410000           3.77230000         
O                    -4.78450000          -2.11920000          -0.46350000         
O                    -0.01200000          -4.12950000          -1.68120000         
O                    -1.95580000           4.23350000           1.46010000         
O                    -3.32760000           2.04060000          -3.20390000         
O                     1.59800000           0.37730000          -3.49840000         
H                    -2.62390000           4.30380000           2.15860000         
H                    -3.40190000          -0.75170000           4.19530000         
H                     1.54990000          -2.70940000           3.95440000         
H                    -0.24030000          -4.99580000          -1.31260000         
H                     1.43000000          -0.01680000          -4.36810000         
H                    -5.32700000          -2.21640000          -1.26000000         
H                    -3.38440000           2.99190000          -3.37790000         
H                     0.62080000           2.14890000          -0.11530000         
