12

O                     2.70991000           0.22361000           0.40387000         
O                     1.68166000           0.31861000          -0.61973000         
C                     0.44968000           0.51375000           0.07223000         
C                    -0.59762000          -0.37929000          -0.56103000         
C                    -1.92976000          -0.12464000           0.07960000         
O                    -2.77408000          -0.99919000           0.23830000         
H                     2.89882000          -0.72460000           0.27890000         
H                     0.54840000           0.28496000           1.14065000         
H                     0.17349000           1.57032000          -0.01767000         
H                    -0.32445000          -1.43337000          -0.43960000         
H                    -0.67569000          -0.17735000          -1.63415000         
H                    -2.16016000           0.92719000           0.32341000         
