10

C                     6.40561000          -0.79056000          -0.38626000         
C                     6.67687000           0.32491000          -0.75675000         
H                     6.90209000           1.30590000          -1.08449000         
C                     6.06175000          -2.14461000           0.06062000         
C                     5.75085000          -2.15416000           1.55263000         
H                     5.17456000          -2.49917000          -0.50703000         
H                     6.91429000          -2.82308000          -0.14708000         
H                     5.48885000          -3.18552000           1.87131000         
H                     6.63485000          -1.81604000           2.13463000         
H                     4.89282000          -1.48665000           1.78071000         
