54

C         -3.49069        0.62712        1.39558
C         -4.10208        1.81907        0.66925
H         -4.28497        0.07043        1.93440
H         -2.73954        0.98559        2.13038
H         -4.59226        2.49313        1.40297
H         -3.32822        2.39536        0.12581
C         -5.74044       -1.05028       -1.60141
C         -5.78200       -0.01366       -2.45804
C         -6.57782       -1.15182       -0.35937
C         -6.66609        1.19284       -2.30358
Ga        -2.57631       -0.62724        0.11993
H         -5.05699       -1.86605       -1.81769
H         -4.85930        1.47843       -0.06115
H         -5.13110       -0.04304       -3.32656
H         -6.36113       -0.30818        0.32711
H         -6.34475       -2.09938        0.16968
H         -7.65558       -1.14667       -0.62402
H         -7.33331        1.26915       -3.18699
H         -7.29664        1.15741       -1.39200
H         -6.03310        2.10230       -2.25372
O         -1.44085        0.28693       -0.78344
O         -1.77270       -1.85927        1.00108
Si         0.90290        2.66300        1.39720
Si         2.26510        2.10360       -1.44720
Si        -0.51040        0.46110       -2.04960
Si         1.89660       -0.32670        2.28230
Si         3.55350       -0.67160       -0.53510
Si         1.04230       -2.36250       -1.62470
Si        -0.34550       -2.50060        1.29760
O          1.92070        2.77780        0.04790
O          0.83040        1.46020       -2.01560
O         -0.70770        2.68860        0.89740
O          1.25520        1.21180        2.15410
O          3.37630        0.84900       -1.24280
O          0.06240       -1.11580       -2.16420
O          2.97790       -0.54710        1.03020
O          2.59320       -1.75760       -1.36990
O          0.42840       -2.88090       -0.15790
O          0.62800       -1.39540        2.09760
O         -1.54450        0.82210       -3.33340
O          2.87330        3.22630       -2.53870
O          5.14510       -1.20320       -0.59040
O          1.08600       -3.58460       -2.77750
O          1.20800        3.90440        2.49200
O          2.74010       -0.55850        3.71880
O         -0.43760       -3.86950        2.28260
H          2.34520       -0.55920        4.60290
H         -1.06450        1.98510        0.27700
H          1.15510        4.84610        2.27170
H          3.81160        3.31070       -2.76410
H         -1.28170        0.83880       -4.26620
H          1.87730       -4.10590       -2.97960
H         -0.86160       -4.69840        2.01440
H          5.81470       -1.00420        0.08070
