12

C                     0.57636000           1.22194000          -2.73756000         
C                    -0.44638000           0.93770000          -1.63086000         
C                     2.51128000           0.32235000          -0.26759000         
O                     1.89809000           1.33634000          -2.25865000         
O                     2.61643000           1.38694000           0.32636000         
O                     2.16685000           0.26169000          -1.58053000         
H                     2.46536000           2.24408000          -0.09969000         
H                     0.30889000           2.20006000          -3.19048000         
H                     0.51713000           0.45410000          -3.53939000         
H                    -0.28045000          -0.06942000          -1.19228000         
H                    -1.47150000           0.96129000          -2.05550000         
H                    -0.36678000           1.70286000          -0.83031000         
