12

C                     1.17567000           1.06088000          -1.19479000         
C                    -0.25895000           0.71788000          -0.78412000         
C                     1.92533000          -0.21685000          -1.50648000         
O                     1.16513000           1.92031000          -2.31337000         
O                     0.85898000           3.12614000          -1.86789000         
O                     2.43564000          -0.45301000          -2.59650000         
H                     1.69131000           3.65459000          -1.96971000         
H                     1.70928000           1.53924000          -0.34029000         
H                     2.40062000           0.15689000          -3.34559000         
H                    -0.25777000           0.03926000           0.09567000         
H                    -0.79249000           0.22282000          -1.62379000         
H                    -0.80977000           1.64136000          -0.50696000         
