12

C                     0.95997000           1.34826000          -1.96228000         
C                    -0.07823000           2.25791000          -1.30644000         
C                     2.79000000          -1.71107000          -0.74068000         
O                     0.41157000           0.08417000          -2.21590000         
O                     0.46812000           3.52373000          -1.05682000         
O                     3.42449000          -1.45427000          -1.63683000         
H                     0.53008000           3.98398000          -1.93438000         
H                     1.86503000           1.25598000          -1.32010000         
H                     1.28120000           1.79110000          -2.92886000         
H                     0.32450000          -0.36876000          -1.33686000         
H                    -0.98439000           2.34729000          -1.94753000         
H                    -0.39753000           1.81593000          -0.33866000         
