12

C                     0.36587000           1.21369000          -2.55643000         
C                    -0.38658000           0.80098000          -1.33445000         
C                     2.61320000          -1.58238000          -0.81435000         
O                     0.04575000           2.22377000          -3.16161000         
O                     1.67410000           3.69832000          -0.66744000         
O                     3.23446000          -1.30913000          -1.71573000         
H                     1.51760000           4.11692000          -1.55109000         
H                     2.21765000           2.89476000          -0.86635000         
H                     1.20101000           0.61797000          -2.90984000         
H                     0.04386000          -0.13584000          -0.92494000         
H                    -1.45219000           0.62717000          -1.59137000         
H                    -0.31912000           1.59683000          -0.56362000         
