12

C                     0.61577000           1.87697000          -2.06777000         
C                    -0.20074000           1.02853000          -1.09693000         
C                     2.61157000          -1.59096000          -0.81139000         
O                     1.98539000           1.71165000          -1.80720000         
O                     0.24919000           3.22885000          -1.95505000         
O                     3.23784000          -1.33326000          -1.71401000         
H                     0.61656000           3.56211000          -1.09474000         
H                     2.46671000           2.30010000          -2.44546000         
H                     0.39591000           1.52746000          -3.10117000         
H                     0.06603000          -0.04321000          -1.21165000         
H                    -1.28480000           1.14966000          -1.30602000         
H                     0.00217000           1.33919000          -0.04986000         
