12

C                     1.20252000           1.49735000          -2.10458000         
C                     0.29330000           0.34574000          -1.65922000         
C                     1.78337000          -0.86533000          -0.37534000         
O                     0.42107000           2.59617000          -2.51514000         
O                     0.43417000           3.47441000          -1.52848000         
O                     1.02276000          -0.78709000          -1.33522000         
H                     1.02312000           4.20535000          -1.84991000         
H                     1.92491000           1.76574000          -1.29757000         
H                     1.81387000           1.16825000          -2.97098000         
H                    -0.33878000           0.65551000          -0.79700000         
H                    -0.38087000           0.09066000          -2.50449000         
H                     1.93148000          -0.03299000           0.30923000         
