12

C                     1.24892000           1.71545000          -1.44658000         
C                     0.30265000           1.28382000          -0.60420000         
C                     2.65295000          -1.70566000          -0.81067000         
O                     1.23154000           2.95592000          -1.99286000         
O                     0.30432000           3.82130000          -1.73152000         
O                     3.29417000          -1.48850000          -1.71374000         
H                     0.79262000           4.61715000          -1.40041000         
H                     2.06222000           1.04822000          -1.70890000         
H                    -0.18802000           0.03599000          -3.45947000         
H                     0.35872000           0.27948000          -0.19672000         
H                    -0.79499000           0.35451000          -3.28212000         
H                    -0.53122000           1.91472000          -0.31523000         
