12

C                     0.64958000           1.03627000          -1.24491000         
C                    -0.47597000           0.16071000          -0.70156000         
C                     1.81533000           0.19831000          -1.71643000         
O                     3.15383000           1.88570000          -2.35895000         
O                     2.27430000           2.77789000          -2.69061000         
O                     2.87053000           0.65230000          -2.17000000         
H                     2.28284000           3.42937000          -1.94452000         
H                     0.99422000           1.71669000          -0.43663000         
H                     0.23914000           1.63242000          -2.08579000         
H                    -0.11472000          -0.44870000           0.15431000         
H                    -0.85505000          -0.51521000          -1.49792000         
H                    -1.31233000           0.80274000          -0.35297000         
