12

C                     0.33296000           2.04958000          -1.92406000         
C                    -0.48715000           1.01612000          -2.10799000         
C                     2.81845000          -2.06152000          -0.90584000         
O                    -0.13327000           3.31382000          -2.00485000         
O                     0.64936000           4.32000000          -1.77943000         
O                     3.42729000          -1.74533000          -1.80211000         
H                     1.09681000           4.49891000          -2.64602000         
H                     1.38216000           1.87276000          -1.70770000         
H                     1.82968000           0.37214000           0.13058000         
H                    -0.10654000           0.00189000          -2.03982000         
H                    -1.53902000           1.17484000          -2.32418000         
H                     1.26712000           0.46571000           0.54927000         
