12

C                     0.27308000           1.68938000          -2.50240000         
C                    -0.68517000           1.36516000          -1.62624000         
C                     2.80624000          -1.98132000          -0.89622000         
O                     0.96879000           2.85035000          -2.42631000         
O                     0.75684000           3.72978000          -1.49962000         
O                     3.40330000          -1.65895000          -1.79816000         
H                     1.20690000           4.54914000          -1.82670000         
H                     1.99254000           0.80192000          -0.22650000         
H                     0.50682000           0.99641000          -3.30404000         
H                     1.47320000           0.41655000           0.06175000         
H                    -1.21139000           0.42135000          -1.72568000         
H                    -0.95174000           2.02468000          -0.80681000         
