12

C                     1.81188000           1.46078000          -3.06946000         
C                    -0.52352000           1.64259000          -0.55438000         
C                     2.58552000          -1.57712000          -0.79793000         
O                     1.30001000           2.32187000          -3.76466000         
O                    -0.16927000           2.98121000          -0.35869000         
O                     3.26095000          -1.35873000          -1.67424000         
H                     0.38406000           3.23631000          -1.14168000         
H                     2.43387000           1.74263000          -2.22672000         
H                     1.63542000           0.41337000          -3.28621000         
H                     0.38134000           0.99761000          -0.53735000         
H                    -1.07633000           1.52413000          -1.51188000         
H                    -1.19148000           1.32378000           0.27148000         
