12

C                     1.36280000           0.95268000          -1.61245000         
C                     0.39866000           0.65608000          -0.74395000         
C                     2.78309000          -1.88397000          -0.73253000         
O                    -0.64637000           3.36337000          -2.90151000         
O                    -0.13445000           3.96180000          -1.84595000         
O                     3.47973000          -1.71081000          -1.60209000         
H                     0.84615000           3.92791000          -1.98661000         
H                     2.04628000           1.77108000          -1.41279000         
H                     1.47165000           0.37718000          -2.52590000         
H                    -0.28369000          -0.16350000          -0.94448000         
H                    -0.95315000           2.48140000          -2.56941000         
H                     0.28880000           1.23247000           0.16869000         
