12

C                     1.10827000           0.86102000          -2.10805000         
C                     0.02486000           0.26698000          -1.61288000         
C                     2.73501000          -1.80964000          -0.74238000         
O                    -0.43313000           3.74940000          -1.27834000         
O                     0.78391000           4.24420000          -1.18868000         
O                     3.41675000          -1.63331000          -1.62326000         
H                     1.22228000           3.99435000          -2.04189000         
H                     1.96291000           1.05898000          -1.46912000         
H                     1.14371000           1.15279000          -3.15227000         
H                    -0.00972000          -0.02285000          -0.56756000         
H                    -0.83086000           0.07116000          -2.25036000         
H                    -0.43119000           2.96330000          -0.67487000         
