12

C                     1.69332000           2.37813000          -2.38674000         
C                    -0.65566000           1.09263000          -0.82286000         
C                     2.57110000          -1.54553000          -0.82249000         
O                     0.29139000           2.27327000          -2.38426000         
O                    -0.09551000           2.34473000          -1.12063000         
O                     3.19142000          -1.26612000          -1.72325000         
H                     1.99418000           3.44219000          -2.48475000         
H                     2.15898000           1.92674000          -1.48019000         
H                     2.08387000           1.80882000          -3.25476000         
H                     0.11895000           0.29657000          -0.87516000         
H                    -1.50442000           0.86758000          -1.50581000         
H                    -1.05223000           1.11357000           0.21258000         
