12

C                     1.32496000           1.38232000          -2.36229000         
C                     0.53037000           0.25245000          -1.75727000         
C                     0.75401000          -0.32084000          -0.55928000         
O                     0.47236000           2.46300000          -2.65308000         
O                     0.46466000           3.24123000          -1.58586000         
O                     1.73858000           0.04814000           0.29286000         
H                     0.97166000           4.04876000          -1.86015000         
H                     2.19922000           1.70918000          -1.76086000         
H                     1.75554000           1.02226000          -3.31921000         
H                     0.10236000          -1.13368000          -0.25374000         
H                    -0.29402000          -0.13301000          -2.35055000         
H                     2.36960000           0.76010000           0.13352000         
