12

C                     1.53792000           1.48130000          -2.33366000         
C                     0.67030000           0.76157000          -1.33734000         
C                     1.00527000          -0.44970000          -0.87434000         
O                     0.95306000           2.70459000          -2.70692000         
O                     1.13492000           3.53448000          -1.69546000         
O                     0.22634000          -1.09506000           0.02317000         
H                     1.58175000           4.32376000          -2.09422000         
H                     2.56657000           1.63416000          -1.93233000         
H                     1.63491000           0.85407000          -3.24526000         
H                     1.91471000          -0.93278000          -1.21824000         
H                    -0.59330000          -0.71304000           0.36858000         
H                    -0.24315000           1.23655000          -0.98987000         
