12

C                     2.60688000           1.41756000          -1.51918000         
C                    -0.42267000           0.48466000          -1.31579000         
C                     0.73891000          -0.21330000          -1.20137000         
O                    -0.63659000           1.80996000          -1.53620000         
O                     0.26349000           2.72482000          -1.64736000         
O                     2.04057000           0.18932000          -1.28182000         
H                     0.13209000           3.09663000          -2.55605000         
H                     3.70991000           1.30099000          -1.52087000         
H                     2.31440000           1.78875000          -2.52330000         
H                     0.61269000          -1.27634000          -1.01781000         
H                    -1.32726000          -0.10779000          -1.21434000         
H                     2.35689000           2.12464000          -0.70180000         
