12

C                     2.37374000           1.36734000          -2.21044000         
C                     0.06399000           0.17357000          -0.70617000         
C                     1.11081000          -0.50716000          -1.19534000         
O                    -0.80894000           3.69133000          -1.98076000         
O                    -0.21308000           4.07239000          -1.07356000         
O                     2.18009000           0.05161000          -1.82990000         
H                     1.50750000           2.02217000          -2.01153000         
H                     3.25773000           1.77435000          -1.67796000         
H                     2.57338000           1.39869000          -3.30127000         
H                     1.11264000          -1.58507000          -1.06991000         
H                    -0.73732000          -0.36721000          -0.21292000         
H                    -0.03124000           1.24789000          -0.76615000         
