12

C                     1.75974000           1.12110000          -2.67606000         
C                    -0.02557000           0.78896000          -1.42725000         
C                     1.18278000           0.88487000          -0.54849000         
O                     0.37578000           1.41128000          -2.60320000         
O                     1.28977000           2.14691000           0.06804000         
O                     2.25070000           0.68319000          -1.42144000         
H                     1.35138000           2.84074000          -0.63934000         
H                     2.30482000           2.04271000          -2.97118000         
H                     1.92505000           0.32410000          -3.43238000         
H                     1.14168000           0.10663000           0.24282000         
H                    -0.25115000          -0.27635000          -1.66329000         
H                    -0.91567000           1.26577000          -0.96412000         
