12

C                     2.11521000           2.14361000          -2.22613000         
C                    -0.39719000           0.03387000          -0.39964000         
C                     0.64192000          -0.51212000          -1.04284000         
O                     0.98009000           1.33188000          -2.41987000         
O                     1.71413000           3.39354000          -1.74113000         
O                     1.30109000           0.13185000          -2.03800000         
H                     1.22265000           3.83652000          -2.48068000         
H                     2.83127000           1.71906000          -1.48312000         
H                     2.66630000           2.26080000          -3.18588000         
H                     0.97072000          -1.50685000          -0.75947000         
H                    -0.89568000          -0.51757000           0.39068000         
H                    -0.76122000           1.02529000          -0.64982000         
