12

C                     2.19129000           1.43566000          -1.83104000         
C                    -0.80795000           0.05578000          -1.24240000         
C                    -0.22871000          -0.98661000          -1.41876000         
O                     0.97361000           2.12003000          -2.03379000         
O                     1.07434000           3.28340000          -1.41845000         
O                     2.11385000           0.52904000          -0.75977000         
H                     1.13272000           3.94907000          -2.15166000         
H                     3.05171000           2.12248000          -1.67745000         
H                     2.39397000           0.85835000          -2.75612000         
H                     0.28933000          -1.90223000          -1.52803000         
H                     1.43704000           0.85800000          -0.11342000         
H                    -1.23189000           1.01692000          -1.10500000         
