12

C                     1.61072000           1.06417000          -1.83071000         
C                    -0.19053000           0.36882000          -0.26879000         
C                     0.72918000           0.03407000          -1.17870000         
O                     0.81246000           1.97867000          -2.55246000         
O                     0.70420000           3.06998000          -1.81423000         
O                     2.48142000           0.41777000          -2.71858000         
H                     1.29541000           3.73378000          -2.25343000         
H                     2.22702000           1.55361000          -1.03558000         
H                     3.02438000           1.12866000          -3.14908000         
H                     0.84005000          -1.01246000          -1.44897000         
H                    -0.81073000          -0.39881000           0.18256000         
H                    -0.33429000           1.40162000           0.03206000         
