12

C                     1.89820000           0.93820000          -1.83091000         
C                    -0.49011000          -0.25566000          -0.41486000         
C                     0.68751000          -0.85658000          -0.64159000         
O                     0.93628000           1.64992000          -2.06949000         
O                     2.26070000           4.49359000          -2.75980000         
O                     1.77690000          -0.26950000          -1.21709000         
H                     1.30254000           4.47959000          -2.51004000         
H                     2.88080000           1.26040000          -2.15698000         
H                     2.33499000           3.83536000          -3.49594000         
H                     0.78857000          -1.89135000          -0.33056000         
H                    -1.28937000          -0.81837000           0.05676000         
H                    -0.69770000           0.77431000          -0.66540000         
