12

C                     1.52559000           1.69276000          -2.23396000         
C                    -0.31440000           0.09835000          -0.59647000         
C                     0.94066000          -0.27335000          -0.88786000         
O                     2.62533000           2.09159000          -3.00756000         
O                     1.26448000           2.64797000          -1.23765000         
O                     1.79109000           0.46323000          -1.65646000         
H                     0.93055000           3.45620000          -1.70693000         
H                     3.36066000           2.30740000          -2.37601000         
H                     0.64174000           1.58912000          -2.90381000         
H                     1.30053000          -1.21754000          -0.49163000         
H                    -0.93502000          -0.54169000           0.02221000         
H                    -0.74190000           1.02587000          -0.95976000         
