12

C                     1.54659000           0.90641000          -2.87227000         
C                    -0.27575000           0.11946000          -0.59144000         
C                     0.78669000          -0.56585000          -1.03915000         
O                     0.54827000           1.60417000          -2.94448000         
O                     1.91562000           3.75114000          -0.86411000         
O                     1.63755000          -0.15206000          -2.02260000         
H                     1.58894000           4.08713000          -1.73647000         
H                     2.71806000           3.21634000          -1.08920000         
H                     2.37761000           1.11232000          -3.53742000         
H                     0.99629000          -1.52335000          -0.57311000         
H                    -0.88243000          -0.30440000           0.20254000         
H                    -0.56813000           1.08858000          -0.96821000         
