12

C                     1.90533000           1.38716000          -2.70102000         
C                     0.32877000           0.76468000          -0.05745000         
C                     0.90015000          -0.08693000          -0.94156000         
O                     0.75229000           1.88240000          -3.33083000         
O                     0.39471000           2.11571000          -0.07113000         
O                     1.65201000           0.19729000          -2.04607000         
H                     0.87616000           2.66199000          -0.69595000         
H                     2.39492000           2.13634000          -2.04848000         
H                     2.64099000           1.16846000          -3.50195000         
H                     0.74795000          -1.14322000          -0.74242000         
H                    -0.23559000           0.31884000           0.75599000         
H                     0.03162000           1.93717000          -2.65504000         
