12

C                     2.21657000           0.89931000          -2.45942000         
C                    -0.24576000           0.80060000           0.14980000         
C                     0.58085000           1.37591000          -0.72264000         
O                     1.31425000           0.74667000          -3.52053000         
O                     0.39983000           2.67795000          -1.04151000         
O                     1.58222000           0.63034000          -1.26359000         
H                     0.99457000           3.17044000          -1.62216000         
H                     2.64117000           1.92446000          -2.47184000         
H                     3.06733000           0.19684000          -2.59473000         
H                     1.02154000          -0.20362000          -3.49804000         
H                    -0.12463000          -0.24515000           0.41382000         
H                    -1.05864000           1.36614000           0.59495000         
