12

C                     1.99871000           1.44506000          -2.40301000         
C                    -0.60016000          -0.36972000          -1.23226000         
C                     0.46651000          -0.15677000          -1.75855000         
O                     0.85247000           2.27911000          -2.43478000         
O                     1.05083000           3.25000000          -1.56075000         
O                     1.70070000           0.06054000          -2.27545000         
H                     1.14391000           4.07017000          -2.11001000         
H                     2.75040000           1.74640000          -1.62998000         
H                     2.50711000           1.55693000          -3.38150000         
H                     1.11525000          -0.36913000           0.74306000         
H                    -1.53578000          -0.49058000          -0.75149000         
H                     0.93934000           0.31788000           0.75880000         
