12

C                     2.03246000           1.43394000          -3.17631000         
C                    -0.25503000           0.26049000          -0.14995000         
C                     1.01788000          -0.12737000          -0.11746000         
O                     1.15530000           2.11011000          -2.40797000         
O                     1.39500000           3.32934000          -2.04864000         
O                     1.79802000           0.27928000          -3.49229000         
H                     0.77082000           3.87743000          -2.58861000         
H                     1.80842000           0.60357000           0.01949000         
H                     2.94810000           1.90832000          -3.51498000         
H                     1.27365000          -1.17557000          -0.23088000         
H                    -1.04568000          -0.46934000          -0.28915000         
H                    -0.50965000           1.30970000          -0.03916000         
