12
140.29605017129143
C        0.701733       1.416555      -2.525080
C        0.508419       0.665800      -1.220341
C        1.827866      -0.054195      -0.903913
O        0.550409       2.710805      -2.028185
O        1.869625       2.286359      -0.568656
O        2.440115      -0.035310       0.112773
H        1.575379       3.187141      -0.396567
H        1.678155       1.282182      -3.004212
H       -0.075345       1.191942      -3.271890
H        2.095226      -0.731860      -1.746737
H       -0.087051      -0.251987      -1.288391
H       -0.380331       2.102977      -1.371560
12
140.09920801713088
C        0.700155       1.415996      -2.525926
C        0.506780       0.663461      -1.222627
C        1.825044      -0.054920      -0.902441
O        0.549004       2.709906      -2.025376
O        1.872575       2.293065      -0.571794
O        2.431873      -0.038363       0.119222
H        1.579628       3.193562      -0.397499
H        1.675482       1.282633      -3.007529
H       -0.079041       1.193569      -3.271350
H        2.097481      -0.730272      -1.746000
H       -0.088594      -0.254718      -1.293878
H       -0.376645       2.099235      -1.366867
