12
10.653440465897802
C        0.618058       1.449518      -2.527271
C        0.279340       0.485211      -1.385897
C        1.603556       0.097554      -0.764136
O        0.929212       2.679948      -1.899425
O        2.099620       2.421292      -1.104682
O        1.907026       0.168197       0.397222
H        1.915488       3.106650      -0.454844
H        1.491272       1.166439      -3.131260
H       -0.239358       1.571883      -3.190511
H        2.289425      -0.331940      -1.523904
H       -0.183464      -0.470162      -1.615669
H       -0.465032       1.118884      -0.870404
12
10.319909686366373
C        0.618163       1.448452      -2.529232
C        0.279675       0.486587      -1.385584
C        1.601150       0.092854      -0.763297
O        0.928853       2.680465      -1.901992
O        2.098316       2.429389      -1.107774
O        1.901737       0.158561       0.399560
H        1.916481       3.117740      -0.458857
H        1.490749       1.164538      -3.133744
H       -0.240299       1.571169      -3.191498
H        2.285317      -0.339753      -1.522836
H       -0.186257      -0.469827      -1.611398
H       -0.457080       1.118478      -0.869845
