12
0.0
C        0.578766       1.472809      -2.507276
C        0.299027       0.419898      -1.427984
C        1.555827       0.118458      -0.652957
O        0.987049       2.696261      -1.955342
O        2.250804       2.523250      -1.325437
O        1.651812       0.163794       0.540891
H        2.161577       3.014922      -0.496673
H        1.337065       1.105476      -3.210082
H       -0.331849       1.732793      -3.050806
H        2.407826      -0.181681      -1.291415
H       -0.033398      -0.498528      -1.914147
H       -0.475507       0.772058      -0.744562
12
-3.172060314682312e-05
C        0.578785       1.472826      -2.507271
C        0.299032       0.419914      -1.427973
C        1.555825       0.118438      -0.652952
O        0.987038       2.696263      -1.955363
O        2.250773       2.523290      -1.325445
O        1.651847       0.163717       0.540930
H        2.161532       3.014926      -0.496716
H        1.337094       1.105475      -3.210069
H       -0.331830       1.732799      -3.050818
H        2.407803      -0.181707      -1.291430
H       -0.033399      -0.498511      -1.914133
H       -0.475501       0.772080      -0.744551
