12
2.8642094127899327
C        1.352473       1.451364      -1.820217
C        0.438801       0.499812      -1.081991
C        1.055668      -0.854388      -0.875838
O        0.684705       2.701075      -1.904160
O        1.594744       3.585217      -2.555981
O        2.206529      -1.135461      -1.047844
H        1.036940       4.341581      -2.767631
H        2.346618       1.582287      -1.384953
H        1.499645       1.236201      -2.895310
H        0.320399      -1.616651      -0.548225
H       -0.505100       0.389748      -1.618449
H        0.211097       0.915976      -0.095033
12
2.8433189572479023
C        1.351945       1.451663      -1.820667
C        0.438649       0.499738      -1.082350
C        1.056370      -0.854075      -0.876008
O        0.684127       2.702023      -1.903653
O        1.595467       3.584351      -2.554746
O        2.207517      -1.134132      -1.047530
H        1.038825       4.340903      -2.768193
H        2.345953       1.582440      -1.385282
H        1.499102       1.236185      -2.895467
H        0.321676      -1.616965      -0.548793
H       -0.505525       0.389209      -1.618083
H        0.211430       0.916117      -0.095397
