12
0.0
C        1.395934       1.481087      -1.789061
C        0.455720       0.532569      -1.055517
C        1.056297      -0.827173      -0.853566
O        0.715900       2.710888      -1.896213
O        1.563633       3.643617      -2.566948
O        2.146577      -1.170887      -1.206348
H        0.992301       4.419275      -2.639400
H        2.329668       1.610857      -1.228666
H        1.639406       1.092942      -2.785617
H        0.376343      -1.523443      -0.323373
H       -0.478028       0.422940      -1.612889
H        0.195250       0.946818      -0.078193
12
-5.453684934764169e-05
C        1.395967       1.481101      -1.789065
C        0.455751       0.532584      -1.055518
C        1.056293      -0.827169      -0.853559
O        0.715889       2.710883      -1.896219
O        1.563566       3.643630      -2.566939
O        2.146593      -1.171058      -1.206339
H        0.992249       4.419232      -2.639366
H        2.329696       1.610902      -1.228669
H        1.639453       1.092957      -2.785621
H        0.376258      -1.523384      -0.323395
H       -0.477980       0.422972      -1.612906
H        0.195264       0.946840      -0.078193
