60

C                    -1.88159000           3.99243000          -0.50659000         
C                    -1.96749000           3.66739000          -1.79653000         
H                    -2.72600000           4.44056000           0.00007000         
H                    -0.96772000           3.80341000           0.04441000         
H                    -2.88816000           3.84934000          -2.34282000         
H                    -1.12837000           3.20776000          -2.30761000         
C                    -5.86506000           0.78471000           1.38598000         
C                    -4.88038000          -0.35780000           1.04969000         
C                    -5.30424000           2.21028000           1.37457000         
C                    -4.27641000          -0.26967000          -0.37568000         
C                    -4.30477000           2.46160000           2.49498000         
C                    -4.23326000          -1.64748000          -1.03901000         
Ga                   -2.37513000           0.50095000          -0.45967000         
H                    -6.68675000           0.74358000           0.63722000         
H                    -5.52881000          -1.26155000           1.10653000         
H                    -4.08669000          -0.50208000           1.81016000         
H                    -6.15801000           2.90848000           1.52519000         
H                    -4.84924000           2.43688000           0.38767000         
H                    -6.32174000           0.58614000           2.38112000         
H                    -4.94862000           0.33515000          -1.02474000         
H                    -4.78015000           2.27575000           3.48223000         
H                    -3.42122000           1.80692000           2.38994000         
H                    -3.97230000           3.52052000           2.45609000         
H                    -3.86301000          -1.55570000          -2.08288000         
H                    -5.26062000          -2.07107000          -1.09389000         
H                    -3.57740000          -2.34041000          -0.47249000         
O                    -1.44330000          -0.32170000          -1.67670000         
O                    -1.53750000           0.70480000           1.05560000         
Si                    2.64350000           2.59470000          -0.84030000         
Si                    2.72700000          -0.35600000          -2.17660000         
Si                   -0.36010000          -1.50610000          -2.04990000         
Si                    2.29690000           1.15490000           2.08930000         
Si                    3.32550000          -1.63250000           0.76720000         
Si                    0.33900000          -2.77780000           0.86800000         
Si                   -0.70870000          -0.00580000           2.28110000         
O                     2.74780000           1.29810000          -1.88680000         
O                     1.17430000          -0.89160000          -2.37980000         
O                     1.35680000           3.60630000          -1.29580000         
O                     2.28240000           2.05930000           0.69050000         
O                     3.38230000          -1.08450000          -0.81400000         
O                    -0.15370000          -2.52760000          -0.71410000         
O                     3.07010000          -0.29070000           1.73170000         
O                     2.02390000          -2.68650000           0.91820000         
O                    -0.24610000          -1.57250000           1.85500000         
O                     0.74720000           0.80310000           2.59910000         
O                    -0.86740000          -2.40070000          -3.39260000         
O                     3.58730000          -0.73130000          -3.57490000         
O                     4.74980000          -2.40650000           1.21100000         
O                    -0.18240000          -4.28360000           1.41450000         
O                     4.12210000           3.41700000          -0.89250000         
O                     3.14440000           2.05960000           3.23090000         
O                    -1.64580000          -0.04240000           3.68820000         
H                     3.23430000           1.81760000           4.16450000         
H                     1.36850000           4.14390000          -2.10270000         
H                     4.52500000           3.85970000          -0.12980000         
H                     4.49750000          -0.44560000          -3.74510000         
H                    -0.24640000          -2.73420000          -4.05860000         
H                    -0.46570000          -4.99510000           0.82090000         
H                    -1.37320000          -0.50250000           4.49680000         
H                     4.81600000          -3.36080000           1.36440000         
