60

C                    -4.92777000           2.66047000          -1.72104000         
C                    -4.34072000           2.24738000          -2.85102000         
H                    -2.31525000           2.15162000          -1.00621000         
H                    -4.53701000           3.55770000          -1.25007000         
H                    -4.68768000           1.36717000          -3.38074000         
H                    -3.49341000           2.79586000          -3.25306000         
C                    -6.11861000           1.93742000          -1.12109000         
C                    -5.75783000           0.47191000          -0.74397000         
C                    -6.68421000           2.74503000           0.07870000         
C                    -6.94989000          -0.41860000          -0.36329000         
C                    -5.74985000           2.84153000           1.29665000         
C                    -7.84135000          -0.73029000          -1.56377000         
Ga                   -2.25184000           0.64097000          -0.50004000         
H                    -6.89114000           1.93473000          -1.91685000         
H                    -5.05335000           0.47780000           0.10610000         
H                    -5.23753000          -0.03409000          -1.58545000         
H                    -7.64526000           2.30453000           0.41357000         
H                    -6.90453000           3.77814000          -0.27074000         
H                    -6.54891000          -1.38937000           0.00862000         
H                    -7.54290000           0.03242000           0.45864000         
H                    -5.58214000           1.84699000           1.75496000         
H                    -4.76910000           3.28568000           1.02871000         
H                    -6.21890000           3.48455000           2.07015000         
H                    -8.30181000           0.18033000          -1.98339000         
H                    -8.65076000          -1.41894000          -1.24878000         
H                    -7.24334000          -1.24409000          -2.35649000         
O                    -1.44330000          -0.32170000          -1.67670000         
O                    -1.53750000           0.70480000           1.05560000         
Si                    2.64350000           2.59470000          -0.84030000         
Si                    2.72700000          -0.35600000          -2.17660000         
Si                   -0.36010000          -1.50610000          -2.04990000         
Si                    2.29690000           1.15490000           2.08930000         
Si                    3.32550000          -1.63250000           0.76720000         
Si                    0.33900000          -2.77780000           0.86800000         
Si                   -0.70870000          -0.00580000           2.28110000         
O                     2.74780000           1.29810000          -1.88680000         
O                     1.17430000          -0.89160000          -2.37980000         
O                     1.35680000           3.60630000          -1.29580000         
O                     2.28240000           2.05930000           0.69050000         
O                     3.38230000          -1.08450000          -0.81400000         
O                    -0.15370000          -2.52760000          -0.71410000         
O                     3.07010000          -0.29070000           1.73170000         
O                     2.02390000          -2.68650000           0.91820000         
O                    -0.24610000          -1.57250000           1.85500000         
O                     0.74720000           0.80310000           2.59910000         
O                    -0.86740000          -2.40070000          -3.39260000         
O                     3.58730000          -0.73130000          -3.57490000         
O                     4.74980000          -2.40650000           1.21100000         
O                    -0.18240000          -4.28360000           1.41450000         
O                     4.12210000           3.41700000          -0.89250000         
O                     3.14440000           2.05960000           3.23090000         
O                    -1.64580000          -0.04240000           3.68820000         
H                     3.23430000           1.81760000           4.16450000         
H                     1.36850000           4.14390000          -2.10270000         
H                     4.52500000           3.85970000          -0.12980000         
H                     4.49750000          -0.44560000          -3.74510000         
H                    -0.24640000          -2.73420000          -4.05860000         
H                    -0.46570000          -4.99510000           0.82090000         
H                    -1.37320000          -0.50250000           4.49680000         
H                     4.81600000          -3.36080000           1.36440000         
