43

C                    -5.90535000          -0.13199000          -1.00809000         
C                    -4.91823000          -1.19675000          -1.35767000         
C                    -3.61383000          -1.10726000          -1.08400000         
H                    -5.28361000          -2.09517000          -1.84875000         
H                    -6.92258000          -0.45352000          -1.31715000         
H                    -5.90616000           0.04053000           0.08851000         
H                    -5.65102000           0.80268000          -1.54286000         
H                    -2.97907000          -1.94343000          -1.35475000         
Ga                   -2.65275000           0.38970000          -0.15880000         
O                    -1.35350000           0.89010000          -1.27340000         
O                    -2.15750000          -0.44070000           1.31580000         
Si                    1.25430000           2.85950000           0.42320000         
Si                    2.56760000           1.07320000          -1.91250000         
Si                   -0.45820000          -0.07670000          -2.31050000         
Si                    1.68570000           0.29120000           2.44160000         
Si                    3.19510000          -1.37380000           0.08690000         
Si                    0.33640000          -2.73230000          -0.56600000         
Si                   -1.06250000          -1.43200000           2.04260000         
O                     2.28220000           2.28880000          -0.79740000         
O                     1.08250000           0.55130000          -2.47890000         
O                    -0.28440000           3.08980000          -0.21760000         
O                     1.31380000           1.69870000           1.62520000         
O                     3.32360000          -0.20050000          -1.11030000         
O                    -0.30320000          -1.59840000          -1.61550000         
O                     2.75000000          -0.60330000           1.50660000         
O                     1.97540000          -2.42850000          -0.35900000         
O                    -0.44250000          -2.52070000           0.89820000         
O                     0.28480000          -0.60000000           2.61840000         
O                    -1.25670000          -0.18360000          -3.79540000         
O                     3.47890000           1.57780000          -3.22990000         
O                     4.62040000          -2.24120000           0.27880000         
O                     0.10400000          -4.26710000          -1.21250000         
O                     1.80720000           4.30420000           1.09240000         
O                     2.42810000           0.60210000           3.91980000         
O                    -1.80760000          -2.26470000           3.30790000         
H                     2.25400000           1.38800000           4.45910000         
H                    -0.72820000           2.40140000          -0.78360000         
H                     1.57220000           5.17140000           0.72890000         
H                     4.43070000           1.75440000          -3.20890000         
H                    -0.82510000          -0.44050000          -4.62480000         
H                     0.69260000          -5.01910000          -1.04910000         
H                    -1.31420000          -2.78020000           3.96400000         
H                     5.32920000          -1.99660000           0.89220000         
