10

C                    -5.18969000          -1.30691000           2.10503000         
C                    -5.49214000          -2.27992000           1.24230000         
H                    -4.47363000          -1.50939000           2.89697000         
H                    -6.19683000          -2.11447000           0.43213000         
H                    -5.02531000          -3.25379000           1.33853000         
C                    -5.79903000           0.03347000           1.99054000         
C                    -5.46979000           1.01297000           2.83109000         
H                    -6.52137000           0.23784000           1.20520000         
H                    -5.92112000           1.99649000           2.72767000         
H                    -4.74581000           0.85483000           3.62880000         
