13

C                    -7.24725000          -0.31698000          -1.12608000         
C                    -6.57345000          -0.89010000           0.08654000         
C                    -5.99383000          -0.14043000           1.04060000         
H                    -6.54915000          -1.97064000           0.19269000         
H                    -7.64014000          -1.13979000          -1.75929000         
H                    -8.09374000           0.33265000          -0.82067000         
H                    -6.51930000           0.27261000          -1.72230000         
H                    -5.52175000          -0.65653000           1.87266000         
C                    -5.95184000           1.34083000           1.00626000         
C                    -5.32304000           2.03125000           1.96002000         
H                    -6.42220000           1.88813000           0.19549000         
H                    -5.29449000           3.11428000           1.91439000         
H                    -4.82856000           1.52686000           2.78470000         
