9

C                    -6.60747000           1.61825000          -0.33302000         
H                    -6.45176000           0.57922000           0.02427000         
H                    -7.59695000           1.97218000           0.02169000         
H                    -6.59488000           1.62281000          -1.44290000         
C                    -5.52605000           2.50812000           0.19054000         
C                    -5.32434000           2.65583000           1.50176000         
H                    -4.89381000           3.04689000          -0.51170000         
H                    -4.53373000           3.30416000           1.86169000         
H                    -5.93935000           2.12412000           2.22198000         
