9
51.49827844292304
C       -2.443025       0.995886       1.122819
C       -1.206686       0.645274       0.976998
C        0.030193       0.296795       0.830249
H       -1.873163      -2.307348       2.905310
H       -3.144775       0.387059       1.670840
H       -2.826162       1.913469       0.705967
H       -2.102164      -2.577428       2.214225
H        0.357191      -0.298367      -0.007477
H        0.789891       0.586361       1.538079
9
51.49824229837759
C       -2.443029       0.995888       1.122827
C       -1.206685       0.645277       0.976997
C        0.030194       0.296793       0.830245
H       -1.873159      -2.307341       2.905324
H       -3.144742       0.387060       1.670818
H       -2.826167       1.913470       0.705979
H       -2.102169      -2.577434       2.214202
H        0.357162      -0.298368      -0.007467
H        0.789896       0.586354       1.538084
