9
28.39104228369615
C       -2.533483       0.151751       1.258822
C       -1.141351      -0.034219       1.639391
C        0.045265       0.092330       1.077531
H       -1.138544      -0.432162       2.790018
H       -3.293613      -0.034127       2.007056
H       -2.740694       1.051811       0.693641
H       -2.694753      -0.972615       0.742968
H        0.152498       0.042258       0.001888
H        0.950344       0.165659       1.646388
9
27.0799882775309
C       -2.534616       0.149548       1.253254
C       -1.142013      -0.036183       1.644312
C        0.045673       0.091288       1.084857
H       -1.140398      -0.431901       2.784577
H       -3.296462      -0.034342       2.000382
H       -2.737465       1.046491       0.683465
H       -2.696457      -0.967629       0.747225
H        0.157001       0.039184       0.009890
H        0.948898       0.169067       1.656560
