9
116.9299799334367
C       -2.456270       0.677836       1.214126
C       -1.210610       0.345461       1.178298
C        0.060132       0.241935       0.923071
H       -1.673806      -1.544660       2.884215
H       -3.184760       0.252280       1.893750
H       -2.824499       1.595413       0.772595
H       -2.411744      -2.008563       1.544958
H        0.402427      -0.123699      -0.033731
H        0.814664       0.437935       1.663854
9
115.66688519623312
C       -2.457254       0.677478       1.215520
C       -1.210880       0.346738       1.179079
C        0.059892       0.241868       0.924219
H       -1.675278      -1.545829       2.873120
H       -3.184210       0.251178       1.895928
H       -2.826099       1.594101       0.772898
H       -2.405946      -2.003134       1.549062
H        0.403085      -0.123324      -0.032511
H        0.814267       0.436115       1.665631
