12
103.55386459065812
C        0.727018       1.494882      -2.398799
C        0.753014       0.736958      -1.102688
C        1.735273       0.330393      -0.284745
O        0.907503       2.876602      -2.160369
O        2.264899       3.061663      -1.737216
O        1.913722      -0.092306       0.769787
H        2.220225       3.866427      -1.199248
H        1.539615       1.153920      -3.060917
H       -0.216182       1.420640      -2.931599
H        0.969326      -1.921690      -1.304585
H        0.695755      -0.703248      -1.828554
H       -0.018994       0.732472      -0.333210
12
103.47709668178686
C        0.726740       1.494820      -2.398748
C        0.752910       0.737055      -1.102549
C        1.735158       0.330651      -0.284823
O        0.907453       2.876508      -2.160625
O        2.265035       3.061503      -1.737967
O        1.914016      -0.091834       0.769745
H        2.220673       3.866317      -1.200141
H        1.539109       1.153695      -3.061014
H       -0.216617       1.420637      -2.931302
H        0.968664      -1.921591      -1.304326
H        0.695307      -0.703845      -1.828169
H       -0.019043       0.732727      -0.332991
