12
0.0
C        0.497981       1.416716      -2.486458
C        0.261324       0.501449      -1.279118
C        1.571159       0.156918      -0.618517
O        1.061607       2.645521      -2.112342
O        2.368274       2.421032      -1.597320
O        1.807553       0.295915       0.548624
H        2.406546       2.989689      -0.815648
H        1.139321       0.916467      -3.223094
H       -0.445410       1.704488      -2.955121
H        2.317232      -0.272318      -1.313542
H       -0.200802      -0.423567      -1.627318
H       -0.395874       0.987388      -0.555956
12
-8.044671449169982e-05
C        0.497987       1.416711      -2.486450
C        0.261335       0.501435      -1.279110
C        1.571167       0.156895      -0.618512
O        1.061572       2.645536      -2.112328
O        2.368282       2.421105      -1.597349
O        1.807538       0.295876       0.548496
H        2.406530       2.989730      -0.815599
H        1.139334       0.916484      -3.223084
H       -0.445404       1.704465      -2.955107
H        2.317227      -0.272337      -1.313510
H       -0.200796      -0.423577      -1.627314
H       -0.395862       0.987377      -0.555944
