12
40.58526274695578
C        0.837386       1.420389      -2.288992
C        0.735701       0.768533      -0.941006
C        1.736192       0.530892      -0.140801
O        0.890980       2.830319      -2.235240
O        2.173824       3.211490      -1.737015
O        2.255771       0.104183       0.805429
H        2.028583       4.124815      -1.457046
H        1.723966       1.055332      -2.820551
H       -0.052042       1.223431      -2.891172
H        0.324171      -2.005636      -2.101720
H        0.548165      -1.286877      -1.884395
H       -0.211536       0.726946      -0.422864
12
40.534326673454416
C        0.837462       1.420421      -2.289125
C        0.735600       0.768704      -0.941075
C        1.736003       0.530709      -0.140680
O        0.891203       2.830345      -2.235222
O        2.173887       3.211596      -1.736727
O        2.257162       0.104498       0.804897
H        2.028497       4.124943      -1.456870
H        1.723960       1.055151      -2.820670
H       -0.052035       1.223646      -2.891260
H        0.323749      -2.006289      -2.101218
H        0.547706      -1.287406      -1.884039
H       -0.211849       0.727553      -0.423266
