12
49.543487743691
C        0.763903       1.449954      -2.335847
C        0.764658       0.794714      -0.994958
C        1.701567       0.431419      -0.147754
O        0.903744       2.856027      -2.233953
O        2.262441       3.112959      -1.841537
O        2.048801       0.008957       0.861966
H        2.197447       3.941024      -1.348432
H        1.604168       1.066625      -2.936885
H       -0.165105       1.309196      -2.886338
H        0.687532      -1.872874      -1.863614
H        0.750066      -1.057914      -1.878680
H       -0.085599       0.682531      -0.321838
12
49.47811009185898
C        0.763432       1.449902      -2.335623
C        0.764791       0.795017      -0.994580
C        1.701802       0.431600      -0.147785
O        0.903284       2.856004      -2.234204
O        2.262086       3.113377      -1.842567
O        2.050661       0.009539       0.861556
H        2.197009       3.941301      -1.349223
H        1.603310       1.066340      -2.937021
H       -0.165940       1.309110      -2.885508
H        0.686715      -1.873381      -1.862217
H        0.749195      -1.059014      -1.878116
H       -0.085490       0.682960      -0.321426
