12
80.52189497996187
C        1.489400       1.365287      -2.193426
C        0.589646       0.456270      -1.438457
C        1.092504      -0.867860      -1.137819
O        1.033032       2.625257      -2.535370
O        0.301505       3.212192      -1.470698
O        2.182291      -1.278444      -1.442691
H        0.309414       4.149765      -1.724317
H        2.361778       1.669087      -1.049229
H        2.122429       1.000961      -2.985813
H        0.371936      -1.499113      -0.549559
H       -0.508521       0.520006      -1.582885
H        0.652952       1.533006      -0.203628
12
78.00080308504039
C        1.492542       1.366857      -2.194761
C        0.589847       0.455159      -1.437698
C        1.090327      -0.868410      -1.136963
O        1.029834       2.624939      -2.535939
O        0.298096       3.210624      -1.470118
O        2.180750      -1.278370      -1.437512
H        0.307601       4.149404      -1.722671
H        2.358516       1.663998      -1.060636
H        2.126276       1.006076      -2.987071
H        0.368154      -1.499343      -0.548000
H       -0.510693       0.523694      -1.576371
H        0.658838       1.521009      -0.220293
