12
136.82777355774488
C        1.468950       1.336978      -2.230360
C        0.589355       0.419925      -1.496595
C        1.039458      -0.901951      -1.225389
O        1.075863       2.586640      -2.536075
O        0.171592       3.109320      -1.581495
O        2.114967      -1.363897      -1.577687
H        0.200384       4.065094      -1.779134
H        2.355285       1.746915      -0.816196
H        2.191397       0.997584      -2.950052
H        0.322954      -1.504409      -0.617464
H       -0.489552       0.581089      -1.500661
H        0.945271       1.791139      -0.097360
12
136.3553197045585
C        1.470370       1.338816      -2.226890
C        0.588952       0.421111      -1.493266
C        1.034101      -0.900888      -1.225170
O        1.078596       2.587953      -2.531942
O        0.163258       3.106256      -1.586521
O        2.108025      -1.367740      -1.581765
H        0.190521       4.061444      -1.781980
H        2.353738       1.747991      -0.813081
H        2.196876       1.000164      -2.943715
H        0.317888      -1.501116      -0.616217
H       -0.486739       0.591968      -1.485867
H        0.970826       1.792219      -0.101424
