54

C                    -3.28428000           2.32506000           3.12362000         
C                    -2.54065000           1.33447000           3.61198000         
H                    -4.36689000           2.24547000           3.12190000         
H                    -2.81398000           3.21418000           2.71808000         
H                    -3.01338000           0.44274000           4.01125000         
H                    -1.45825000           1.40898000           3.60812000         
C                    -5.53189000          -0.68770000          -1.40244000         
C                    -5.37046000           0.77041000          -1.73915000         
C                    -6.37980000          -1.11302000          -0.46173000         
C                    -6.65513000           1.36996000          -2.30268000         
Ga                   -2.49973000          -0.37514000           0.28235000         
H                    -4.92483000          -1.41751000          -1.93048000         
H                    -5.06190000           1.33225000          -0.83050000         
H                    -4.56889000           0.87394000          -2.50215000         
H                    -3.58264000           0.39088000           1.17740000         
H                    -6.45855000          -2.17129000          -0.23925000         
H                    -6.99316000          -0.41270000           0.09892000         
H                    -6.95629000           0.82852000          -3.22461000         
H                    -7.47753000           1.31184000          -1.55911000         
H                    -6.48518000           2.43770000          -2.55518000         
O                    -1.36860000           0.63540000          -0.61580000         
O                    -1.83630000          -1.83050000           0.97050000         
Si                    0.90290000           2.66300000           1.39720000         
Si                    2.26510000           2.10360000          -1.44720000         
Si                   -0.51040000           0.46110000          -2.04960000         
Si                    1.89660000          -0.32670000           2.28230000         
Si                    3.55350000          -0.67160000          -0.53510000         
Si                    1.04230000          -2.36250000          -1.62470000         
Si                   -0.34550000          -2.50060000           1.29760000         
O                     1.92070000           2.77780000           0.04790000         
O                     0.83040000           1.46020000          -2.01560000         
O                    -0.70770000           2.68860000           0.89740000         
O                     1.25520000           1.21180000           2.15410000         
O                     3.37630000           0.84900000          -1.24280000         
O                     0.06240000          -1.11580000          -2.16420000         
O                     2.97790000          -0.54710000           1.03020000         
O                     2.59320000          -1.75760000          -1.36990000         
O                     0.42840000          -2.88090000          -0.15790000         
O                     0.62800000          -1.39540000           2.09760000         
O                    -1.54450000           0.82210000          -3.33340000         
O                     2.87330000           3.22630000          -2.53870000         
O                     5.14510000          -1.20320000          -0.59040000         
O                     1.08600000          -3.58460000          -2.77750000         
O                     1.20800000           3.90440000           2.49200000         
O                     2.74010000          -0.55850000           3.71880000         
O                    -0.43760000          -3.86950000           2.28260000         
H                     2.34520000          -0.55920000           4.60290000         
H                    -1.06450000           1.98510000           0.27700000         
H                     1.15510000           4.84610000           2.27170000         
H                     3.81160000           3.31070000          -2.76410000         
H                    -1.28170000           0.83880000          -4.26620000         
H                     1.87730000          -4.10590000          -2.97960000         
H                    -0.86160000          -4.69840000           2.01440000         
H                     5.81470000          -1.00420000           0.08070000         
