12
18.88880988390156
C        1.857991       1.393128      -2.284003
C       -0.299458       0.138851      -1.196562
C        0.921482      -0.172709      -0.794305
O        1.057418       2.482747      -2.235726
O        1.534074       3.493305      -1.349133
O        2.084531       0.376018      -1.262064
H        0.755941       3.730172      -0.820962
H        1.498784       0.832865      -3.152586
H        2.933403       1.615310      -2.411339
H        1.096672      -0.927270      -0.044181
H       -0.664283       1.069972      -1.572157
H       -1.055259      -0.569183      -0.881909
12
18.410033954343817
C        1.859665       1.391203      -2.284561
C       -0.303360       0.137478      -1.194206
C        0.919724      -0.170006      -0.794899
O        1.059545       2.480468      -2.235278
O        1.536988       3.490589      -1.347542
O        2.081759       0.383265      -1.269553
H        0.758944       3.727719      -0.819773
H        1.499787       0.830416      -3.153324
H        2.934842       1.614397      -2.413303
H        1.101020      -0.921701      -0.043861
H       -0.667992       1.068796      -1.569227
H       -1.060523      -0.569308      -0.879208
