12
6.284106809211153
C        1.891105       1.386266      -2.325917
C       -0.326103       0.070902      -1.229538
C        0.906802      -0.069124      -0.770685
O        1.036022       2.462707      -2.180427
O        1.592014       3.488378      -1.374962
O        2.053368       0.574652      -1.201546
H        1.010339       3.530422      -0.599511
H        1.494335       0.801824      -3.157248
H        2.935582       1.671700      -2.538802
H        1.138784      -0.751776       0.028892
H       -0.659256       0.847569      -1.894986
H       -1.087406      -0.571410      -0.829352
12
6.108449418810778
C        1.888587       1.389056      -2.326460
C       -0.324097       0.068602      -1.228554
C        0.907992      -0.071532      -0.768506
O        1.035196       2.466125      -2.182854
O        1.593704       3.490055      -1.378011
O        2.051037       0.570553      -1.194651
H        1.012751       3.532923      -0.603237
H        1.489802       0.805841      -3.160380
H        2.930627       1.676840      -2.539813
H        1.140172      -0.757254       0.031047
H       -0.657250       0.844253      -1.894008
H       -1.084488      -0.575946      -0.827986
