12
4.276780834856254
C        1.902588       1.439672      -2.281372
C       -0.262422      -0.094706      -1.243350
C        0.946653      -0.056385      -0.712630
O        1.001033       2.500028      -2.213418
O        1.543352       3.588582      -1.492040
O        2.017087       0.697832      -1.103400
H        1.139996       3.530516      -0.612630
H        1.519526       0.824363      -3.107587
H        2.914154       1.799461      -2.502388
H        1.230447      -0.653199       0.143079
H       -0.557779       0.514461      -2.078596
H       -1.005624      -0.750916      -0.831478
12
4.27674046089669
C        1.902583       1.439680      -2.281370
C       -0.262410      -0.094724      -1.243379
C        0.946646      -0.056368      -0.712631
O        1.000986       2.500039      -2.213429
O        1.543292       3.588599      -1.492036
O        2.017076       0.697885      -1.103408
H        1.140091       3.530373      -0.612563
H        1.519537       0.824354      -3.107585
H        2.914142       1.799487      -2.502373
H        1.230440      -0.653126       0.143123
H       -0.557752       0.514439      -2.078640
H       -1.005623      -0.750929      -0.831520
