12

C                     1.50884000           1.96097000          -2.22363000         
C                     1.18440000           0.56593000          -1.94101000         
C                     0.90674000          -0.60057000          -1.83629000         
O                     0.37008000           2.77106000          -2.03953000         
O                     0.70974000           3.74620000          -1.21398000         
O                     0.63436000          -1.90812000          -1.72155000         
H                     0.96712000           4.50794000          -1.79650000         
H                     2.38950000           2.26963000          -1.61729000         
H                     1.79988000           1.99849000          -3.29176000         
H                     0.54789000          -0.21465000           1.14576000         
H                     0.68703000          -2.23712000          -2.65477000         
H                     0.68371000           0.48015000           1.15486000         
