12

C                     0.44603000           1.18613000          -2.37220000         
C                     0.54491000           0.59673000          -1.02064000         
C                     0.85870000          -0.68630000          -0.76631000         
O                     0.13597000           2.35908000          -2.49572000         
O                     2.10130000           4.08995000          -0.87185000         
O                     1.12347000          -1.60428000          -1.72572000         
H                     1.57781000           4.57310000          -1.55982000         
H                     2.60350000           3.40333000          -1.37891000         
H                     0.63868000           0.60846000          -3.26704000         
H                     0.90130000          -1.00934000           0.26904000         
H                     1.10945000          -1.42437000          -2.67391000         
H                     0.34821000           1.24739000          -0.17261000         
