12

C                     2.25888000           0.87955000          -2.17017000         
C                     1.61183000           0.31755000          -0.93166000         
C                     0.31585000           0.38424000          -0.55324000         
O                    -0.55574000           1.75787000          -2.25448000         
O                    -0.59897000           2.99275000          -1.79435000         
O                    -0.69834000           1.01089000          -1.20890000         
H                     0.34773000           3.28702000          -1.76372000         
H                     3.03859000           1.60944000          -1.86934000         
H                     1.58459000           1.37702000          -2.88259000         
H                     0.05316000          -0.11001000           0.37677000         
H                     2.74736000           0.04818000          -2.71928000         
H                     2.28437000          -0.21459000          -0.26472000         
