12

C                     1.72717000           1.35042000          -2.62259000         
C                     1.35408000           1.69199000          -1.20560000         
C                     0.61129000           0.90502000          -0.39572000         
O                     0.58809000           1.35552000          -3.44251000         
O                     0.31288000           1.32118000           0.85542000         
O                     0.15566000          -0.30996000          -0.78259000         
H                     0.59778000           2.17790000           1.20544000         
H                     2.41833000           2.12894000          -3.00909000         
H                     2.27764000           0.38301000          -2.67427000         
H                     0.26445000           0.42252000          -3.51767000         
H                     0.36724000          -0.72865000          -1.62616000         
H                     1.71469000           2.64202000          -0.82035000         
