12

C                     1.18303000           1.88789000          -1.65162000         
C                     0.84846000           0.93144000          -0.53881000         
C                     0.84039000          -0.40639000          -0.68096000         
O                     0.24915000           1.73401000          -2.68918000         
O                     1.12891000           3.20075000          -1.16410000         
O                     1.13881000          -1.03147000          -1.84376000         
H                     1.45588000           3.78538000          -1.89657000         
H                     2.22300000           1.65479000          -1.98826000         
H                     0.74659000           1.83042000          -3.54264000         
H                     0.58444000          -1.01801000           0.17826000         
H                     1.38965000          -0.56935000          -2.65517000         
H                     0.60099000           1.34045000           0.43711000         
