12

C                     0.94808000           1.52653000          -1.84130000         
C                     0.70981000           0.54399000          -0.68752000         
C                     1.02546000          -0.90989000          -0.97715000         
O                     0.37454000           2.77287000          -1.51871000         
O                     1.34415000           3.55975000          -1.09504000         
O                     1.39954000          -1.33956000          -2.06122000         
H                     1.27692000           4.36209000          -1.67397000         
H                     2.03865000           1.59303000          -2.07946000         
H                     0.44010000           1.17244000          -2.76089000         
H                    -0.36155000           0.58601000          -0.40138000         
H                     1.53460000          -0.79178000          -2.84545000         
H                     1.31819000           0.87571000           0.18169000         
