12

C                     1.99743000           1.38070000          -2.12563000         
C                     1.64016000           0.48202000          -0.97172000         
C                     0.50544000           0.54450000          -0.24544000         
O                     1.08099000           1.22178000          -3.17497000         
O                    -0.38500000           2.51328000          -1.15437000         
O                    -0.48591000           1.46252000          -0.40750000         
H                    -0.95798000           2.32732000          -1.94005000         
H                     2.01705000           2.44210000          -1.80205000         
H                     3.02003000           1.14168000          -2.49275000         
H                     0.37197000          -0.19481000           0.53762000         
H                     1.22624000           0.31022000          -3.54331000         
H                     2.35887000          -0.29141000          -0.71553000         
