12

C                     0.93822000           1.52971000          -2.72161000         
C                     0.79842000           0.55095000          -1.86130000         
C                     0.66850000          -0.48157000          -1.06648000         
O                     0.66479000           2.82186000          -2.42045000         
O                     0.27915000           3.20246000          -1.24511000         
O                     0.73451000          -1.73604000          -1.56371000         
H                     0.74376000           4.06710000          -1.10400000         
H                     2.68817000           2.21774000          -0.16770000         
H                     1.27767000           1.28667000          -3.72094000         
H                     0.51001000          -0.33703000          -0.00309000         
H                     0.87668000          -1.90810000          -2.50721000         
H                     2.20943000           2.12615000           0.34590000         
