12

C                     1.83171000           2.09488000          -2.18437000         
C                     1.75061000           0.67553000          -1.77429000         
C                     0.50174000           0.34790000          -1.92268000         
O                     0.51200000           2.46755000          -2.55690000         
O                    -0.19980000           1.38905000          -2.37392000         
O                    -0.03151000          -0.86429000          -1.66314000         
H                     0.15337000           2.26259000           0.64681000         
H                     2.17783000           2.71372000          -1.32977000         
H                     2.51803000           2.19704000          -3.05133000         
H                     0.11527000           1.61624000           0.93314000         
H                     0.50899000          -1.59726000          -1.33528000         
H                     2.55105000           0.03694000          -1.42398000         
