12

C                     1.90272000           1.65676000          -1.88739000         
C                     1.61031000           1.23644000          -0.46893000         
C                     0.37754000           1.15526000           0.04709000         
O                     0.71989000           1.96164000          -2.59777000         
O                     0.60392000           1.07468000          -3.57350000         
O                    -0.29438000           0.21003000          -3.14540000         
H                    -0.50679000           1.39455000          -0.53406000         
H                     2.54592000           2.56104000          -1.87004000         
H                     2.50060000           0.84683000          -2.36945000         
H                     0.24476000           0.84467000           1.07827000         
H                     0.23082000          -0.58912000          -2.88186000         
H                     2.45401000           0.98711000           0.16732000         
