12

C                     0.75428000           1.26952000          -2.05722000         
C                     1.01637000           0.83878000          -0.63482000         
C                     1.87167000          -0.14616000          -0.34661000         
O                    -0.16715000           2.33430000          -2.07786000         
O                     0.48835000           3.41592000          -1.69409000         
O                     0.20105000           0.20087000          -2.77951000         
H                     0.60881000           3.94889000          -2.52153000         
H                     2.40795000          -0.67126000          -1.13091000         
H                     1.70661000           1.59176000          -2.54943000         
H                     2.04221000          -0.43112000           0.68641000         
H                     0.95459000          -0.35496000          -3.11010000         
H                     0.50457000           1.34336000           0.17997000         
