12

C                     2.62449000           1.23261000          -1.90736000         
C                     1.74955000           1.02096000          -0.91938000         
C                     0.32615000           0.59304000          -1.18361000         
O                    -0.35072000           1.53726000          -1.98523000         
O                    -0.62120000           2.57220000          -1.20977000         
O                     0.30278000          -0.66516000          -1.80652000         
H                    -0.02677000           3.29586000          -1.53609000         
H                     3.63827000           1.54284000          -1.67623000         
H                     2.34036000           1.10340000          -2.94695000         
H                    -0.20621000           0.47414000          -0.21162000         
H                     0.54280000          -0.53392000          -2.76097000         
H                     2.06980000           1.16668000           0.10804000         
