12

C                     1.38092000           1.43228000          -2.20535000         
C                     0.80624000           0.30616000          -0.07737000         
C                     0.99421000           0.21761000          -1.39856000         
O                     0.35833000           2.40127000          -2.15342000         
O                     0.72306000           3.30623000          -1.26266000         
O                     0.83763000          -0.98140000          -2.00255000         
H                     0.97499000           4.10203000          -1.79798000         
H                     2.36660000           1.82284000          -1.85634000         
H                     1.52705000           1.15316000          -3.26977000         
H                     0.53008000          -0.57264000           0.49730000         
H                     0.96341000          -1.09720000          -2.95465000         
H                     0.92678000           1.24956000           0.44565000         
