12

C                     1.38262000           1.47156000          -2.14653000         
C                     0.99843000           0.20078000          -1.43234000         
C                     0.78221000           0.20070000          -0.11245000         
O                     0.34261000           2.41807000          -2.04081000         
O                     0.75444000           3.36366000          -1.21497000         
O                     0.87186000          -0.95698000          -2.11750000         
H                     0.94430000           4.14339000          -1.79764000         
H                     2.35708000           1.84040000          -1.74499000         
H                     1.55190000           1.27125000          -3.22522000         
H                     0.50745000          -0.71723000           0.39828000         
H                     1.01865000          -1.00689000          -3.07254000         
H                     0.87775000           1.11120000           0.47101000         
