11

C                     0.69367000           0.34301000           1.54127000         
C                     0.27964000          -3.62398000           3.00109000         
C                     0.17375000           1.17251000           0.63828000         
O                     1.46382000          -0.68972000           1.14587000         
O                     1.04847000          -3.03473000           3.74141000         
H                     1.85166000          -1.29112000           1.79549000         
H                     0.49721000           0.50102000           2.59810000         
H                     0.04219000          -3.21335000           2.02562000         
H                    -0.16718000          -4.55950000           3.31813000         
H                    -0.44481000           2.00578000           0.95526000         
H                     0.36370000           1.02487000          -0.42041000         
