16

C                    -0.64773000          -1.75089000          -0.59044000         
C                     1.95838000          -0.80726000          -0.67256000         
P                     0.33902000          -0.33999000           0.12101000         
C                    -0.98771000           4.42764000           1.37545000         
C                    -1.07711000           3.78751000           0.21214000         
H                     0.58873000          -0.91560000           1.43153000         
H                    -1.64425000          -1.78077000          -0.10408000         
H                    -0.12949000          -2.71537000          -0.40929000         
H                    -0.77854000          -1.59935000          -1.68178000         
H                     2.18808000          -1.87622000          -0.48231000         
H                     2.76853000          -0.18299000          -0.24312000         
H                     1.90097000          -0.62914000          -1.76621000         
H                    -0.58673000           3.92238000           2.24817000         
H                    -1.31526000           5.45897000           1.45860000         
H                    -1.47810000           4.29283000          -0.66053000         
H                    -0.74968000           2.75646000           0.12895000         
