21

C                     2.15940000          -1.90461000           0.99710000         
C                     0.67476000          -2.06619000           0.83952000         
O                    -0.16729000          -1.00541000           0.82015000         
O                     0.25062000           0.21536000           0.91924000         
O                     0.21370000          -3.18973000           0.72527000         
H                     0.18346000           0.57921000          -0.00029000         
H                     2.49335000          -2.44306000           1.90856000         
H                     2.67308000          -2.33448000           0.11198000         
H                     2.45247000          -0.83943000           1.09119000         
C                    -3.29018000           0.16208000           0.07971000         
C                    -3.29230000          -2.89696000           0.83420000         
C                    -2.88895000          -2.29401000          -0.48475000         
C                    -2.88868000          -0.98549000          -0.80773000         
H                    -2.56576000          -0.72083000          -1.81052000         
H                    -2.56598000          -2.99486000          -1.24927000         
H                    -2.43133000           0.85693000           0.18021000         
H                    -4.13012000           0.70747000          -0.39754000         
H                    -3.60802000          -0.12774000           1.09551000         
H                    -4.13112000          -3.60269000           0.66332000         
H                    -2.43457000          -3.46437000           1.24952000         
H                    -3.61327000          -2.16824000           1.59747000         
