17

C                     1.84410000           0.13602000           3.57016000         
C                     1.38757000           1.39140000          -0.09713000         
S                    -1.90529000          -0.41440000           1.15922000         
C                     1.70997000           0.99254000           2.33503000         
C                     1.51975000           0.49773000           1.10007000         
O                     1.72690000          -1.23476000           3.29292000         
Cl                   -1.36107000          -2.40018000           0.73650000         
Cl                   -3.79660000          -0.99773000           1.86563000         
O                    -2.43937000          -0.19869000          -0.26438000         
H                     2.61977000          -1.54086000           2.98466000         
H                     2.81676000           0.34744000           4.06948000         
H                     1.04376000           0.41639000           4.28599000         
H                     1.77215000           2.06812000           2.47518000         
H                     1.45288000          -0.57270000           0.93410000         
H                     0.40050000           1.21925000          -0.57423000         
H                     2.18866000           1.14816000          -0.82535000         
H                     1.46772000           2.46592000           0.17413000         
