20

C                    -1.77901000           1.20768000           1.07754000         
C                     1.01940000           1.20962000           0.79086000         
C                    -0.35664000          -1.21700000           1.11843000         
C                    -0.71596000          -1.38008000          -3.28374000         
C                     0.70453000          -1.63766000          -2.94878000         
P                    -0.46635000           0.33164000           0.08570000         
O                    -0.34202000          -2.34598000          -2.33368000         
H                    -1.52163000           1.20858000           2.15681000         
H                    -1.86810000           2.25474000           0.72195000         
H                    -2.75065000           0.69157000           0.93413000         
H                    -0.24710000          -0.96595000           2.19382000         
H                    -1.27780000          -1.81888000           0.97634000         
H                     0.52009000          -1.81381000           0.79216000         
H                     0.98620000           1.21042000           1.89995000         
H                     1.03394000           2.25688000           0.42506000         
H                     1.94259000           0.69447000           0.45390000         
H                    -1.22675000          -0.54317000          -2.76313000         
H                    -1.13631000          -1.89395000          -4.17215000         
H                     1.26951000          -2.32942000          -3.60630000         
H                     1.18558000          -0.98084000          -2.19388000         
