12

C                     1.85297000           1.55405000          -2.12545000         
C                     0.88228000           0.68693000          -1.32358000         
C                     1.45019000          -0.65918000          -0.96358000         
O                    -1.29526000           3.30905000          -1.79312000         
O                    -0.76604000           3.71431000          -0.85457000         
O                     2.57804000          -0.99101000          -1.29573000         
H                     1.37770000           2.52921000          -2.36031000         
H                     2.77647000           1.74386000          -1.53798000         
H                     2.11962000           1.05295000          -3.08030000         
H                     0.84029000          -1.35201000          -0.39352000         
H                    -0.04113000           0.53311000          -1.92148000         
H                     0.61409000           1.21864000          -0.38608000         
