12

C                     2.35549000           2.10011000          -1.90473000         
C                     0.37902000           0.86386000          -0.72611000         
C                     1.79139000           0.87920000          -1.24450000         
O                    -0.56643000           0.06678000          -2.53085000         
O                    -0.53584000           1.13883000          -1.75897000         
O                     2.48900000          -0.11736000          -1.12930000         
H                     1.60503000           2.91843000          -1.93161000         
H                     3.24595000           2.45084000          -1.34265000         
H                     2.65291000           1.85476000          -2.94581000         
H                    -1.43965000          -0.36152000          -2.33931000         
H                     0.13418000          -0.10494000          -0.23237000         
H                     0.27815000           1.65092000           0.05051000         
