12

C                     1.88814000           2.52187000          -2.34005000         
C                    -0.46257000          -0.45087000          -1.16720000         
C                     0.74950000          -0.83908000          -1.45858000         
O                     0.90008000           2.22524000          -1.38728000         
O                     1.46915000           2.33511000          -0.20130000         
O                     1.86306000          -1.18495000          -1.72504000         
H                     1.87901000           3.60959000          -2.56093000         
H                     2.90694000           2.19948000          -2.02311000         
H                     1.65771000           1.96180000          -3.26991000         
H                     1.42594000           1.42226000           0.18487000         
H                    -1.13097000          -0.12675000          -1.95722000         
H                    -0.75681000          -0.33380000          -0.12995000         
