12

C                     1.73953000           2.70014000          -2.77258000         
C                    -0.10113000          -0.17696000          -0.62973000         
C                     1.36361000           0.15061000          -0.60580000         
O                     1.05804000           2.20452000          -1.64630000         
O                     1.83471000           1.31509000          -1.11018000         
O                     2.14957000          -0.64567000          -0.12106000         
H                     1.48037000           3.77119000          -2.90150000         
H                     2.84915000           2.66145000          -2.66186000         
H                     1.43047000           2.14043000          -3.68032000         
H                    -0.28421000          -1.17536000          -0.17633000         
H                    -0.46528000          -0.18978000          -1.67778000         
H                    -0.66561000           0.58425000          -0.05225000         
