12

C                     1.57763000           2.03502000          -2.24146000         
C                     0.34777000           0.65620000          -0.81686000         
C                     1.11790000          -0.62964000          -0.70191000         
O                     0.66467000           2.92236000          -2.82660000         
O                     1.21408000           1.77321000          -0.89922000         
O                     2.33931000          -0.63858000          -0.72262000         
H                     0.92601000           3.83247000          -2.52838000         
H                     2.60501000           2.46275000          -2.25875000         
H                     1.65628000           1.11510000          -2.86599000         
H                     0.58073000          -1.56583000          -0.59604000         
H                    -0.36537000           0.60644000          -1.67275000         
H                    -0.27481000           0.77040000           0.09489000         
