12

C                     2.09210000           1.67672000          -2.72069000         
C                    -0.07661000           0.58763000          -0.31116000         
C                     2.00560000           0.30285000          -0.99264000         
O                     0.31166000           2.43555000          -2.77010000         
O                    -0.77568000           1.88951000          -1.56202000         
O                     2.87536000          -0.41999000          -0.53653000         
H                     0.98112000           1.87073000          -1.20606000         
H                     2.85271000           2.46726000          -2.54660000         
H                     2.30531000           1.11086000          -3.65242000         
H                     0.54809000           0.79775000          -2.08079000         
H                    -0.63895000          -0.36769000          -0.38122000         
H                    -0.09151000           0.98872000           0.72455000         
