12

C                     2.20055000           1.78011000          -1.82809000         
C                     0.18646000           0.85193000          -0.65960000         
C                     1.28114000           0.57401000          -1.59889000         
O                    -0.56575000           1.00544000          -2.68943000         
O                    -0.68598000           1.55189000          -1.47123000         
O                     0.57765000           0.30271000          -2.76180000         
H                     1.62599000           2.66410000          -2.17997000         
H                     2.72484000           2.04468000          -0.88556000         
H                     2.96113000           1.52571000          -2.59619000         
H                     1.88356000          -0.29397000          -1.25268000         
H                    -0.31550000          -0.09135000          -0.34612000         
H                     0.51510000           1.42464000           0.23388000         
