12

C                     1.70977000           2.17531000          -1.75818000         
C                     0.11162000           0.89927000          -0.63129000         
C                     1.52827000           1.07891000          -0.83798000         
O                     0.40629000           2.53424000          -2.15455000         
O                    -0.49411000           1.95554000          -1.34004000         
O                     2.41734000           0.41820000          -0.32534000         
H                     2.22760000           3.02425000          -1.26429000         
H                     2.27802000           1.82361000          -2.64488000         
H                     1.46057000          -0.50984000          -3.44531000         
H                     1.08657000          -0.97674000          -3.06707000         
H                    -0.22395000          -0.08655000          -1.01653000         
H                    -0.11879000           1.00370000           0.44977000         
