12

C                     1.97152000           2.47726000          -2.92125000         
C                    -0.06236000           0.38887000          -0.51858000         
C                     1.14262000           0.91383000          -1.24571000         
O                     0.96373000           1.84430000          -2.21886000         
O                     0.29781000          -0.54493000           0.46441000         
O                     2.26104000           0.50658000          -0.96011000         
H                     1.87055000           3.57396000          -2.78676000         
H                     2.98525000           2.17490000          -2.58158000         
H                     1.87134000           2.23917000          -4.00015000         
H                     0.44806000          -1.40768000          -0.00366000         
H                    -0.78045000          -0.06378000          -1.23910000         
H                    -0.57991000           1.23741000          -0.02433000         
