12

C                     1.49023000           2.43214000          -2.98472000         
C                     0.45857000           0.55688000           0.26966000         
C                     1.17509000          -0.55718000          -0.36893000         
O                     0.14752000           2.06519000          -2.84997000         
O                     0.98159000           1.65477000           0.37890000         
O                     2.30573000          -0.40569000          -0.80295000         
H                     1.56724000           3.53742000          -2.93319000         
H                     2.09477000           2.01042000          -2.15353000         
H                     1.88467000           2.09529000          -3.96726000         
H                     0.69319000          -1.52508000          -0.45531000         
H                     0.13650000           1.07355000          -2.81615000         
H                    -0.54590000           0.40220000           0.64775000         
