12

C                     2.00804000           1.98258000          -2.73893000         
C                    -0.79287000           1.22587000          -0.00164000         
C                     1.72559000          -0.20056000          -1.69726000         
O                     1.33026000           0.79695000          -2.52877000         
O                    -0.19451000           2.28494000           0.08394000         
O                     2.75740000          -0.12181000          -1.04729000         
H                     1.35032000           2.83177000          -2.46067000         
H                     2.94413000           2.05160000          -2.14444000         
H                     2.26495000           2.06813000          -3.81473000         
H                     1.10583000          -1.08527000          -1.60311000         
H                    -1.27505000           0.94932000          -0.93290000         
H                    -0.83489000           0.55638000           0.85012000         
