12

C                     1.64839000           2.31980000          -2.48586000         
C                    -0.58403000           0.82463000          -0.40263000         
C                     2.39787000          -1.05458000          -1.35536000         
O                     0.56813000           1.50748000          -2.11612000         
O                     0.30382000           1.81037000          -0.85650000         
O                     3.28779000          -0.49880000          -0.93968000         
H                     1.37766000           3.39582000          -2.40844000         
H                     2.54546000           2.08686000          -1.87187000         
H                     1.90143000           2.11183000          -3.54585000         
H                    -0.05676000          -0.14223000          -0.26062000         
H                    -1.44770000           0.70993000          -1.09519000         
H                    -0.99180000           1.14000000           0.57931000         
