12

C                     1.72066000           2.71330000          -2.78297000         
C                     0.24867000           0.28394000          -1.36120000         
C                     0.48674000          -0.62862000          -0.40972000         
O                     0.49196000           2.43530000          -2.15865000         
O                     0.73145000           1.53979000          -1.24946000         
O                     1.21042000          -0.34186000           0.69669000         
H                     1.72295000           3.77642000          -3.10036000         
H                     2.59353000           2.58842000          -2.09997000         
H                     1.84215000           2.06823000          -3.67851000         
H                     0.08735000          -1.63073000          -0.52607000         
H                    -0.33988000           0.00457000          -2.23086000         
H                     1.59319000           0.53114000           0.86536000         
