9
120.51731427084997
C       -2.509000      -0.448518       1.225390
C       -1.184261      -0.102976       1.351053
C        0.087103      -0.164119       1.008556
H       -1.302587       0.377524       2.829329
H       -3.203074      -0.379280       2.045051
H       -2.724232       1.196371       1.280388
H       -2.806383      -1.214936       0.516803
H        0.425021       0.206298       0.052973
H        0.846923      -0.476157       1.701693
9
119.32644945715674
C       -2.511091      -0.446182       1.224898
C       -1.183380      -0.100165       1.352681
C        0.088907      -0.163082       1.011894
H       -1.300593       0.377142       2.819254
H       -3.203054      -0.377941       2.045571
H       -2.727212       1.189071       1.286936
H       -2.810374      -1.207947       0.512458
H        0.430254       0.208347       0.057756
H        0.846803      -0.477624       1.706108
