9
35.531691812520876
C       -2.546080      -0.257342       1.238993
C       -1.144849      -0.034022       1.579759
C        0.067759      -0.124423       1.070197
H       -1.132209       0.127618       2.784153
H       -3.265817      -0.278812       2.044919
H       -2.808886       0.956336       1.004282
H       -2.749165      -1.014702       0.498062
H        0.255053       0.145175       0.040558
H        0.926890      -0.351419       1.671873
9
34.57625616635232
C       -2.547092      -0.255082       1.237130
C       -1.144574      -0.031774       1.581758
C        0.068774      -0.124938       1.073532
H       -1.131862       0.129567       2.779277
H       -3.265949      -0.278394       2.043957
H       -2.812827       0.950086       1.007209
H       -2.748663      -1.010070       0.493950
H        0.258959       0.143989       0.044197
H        0.926346      -0.354707       1.676535
