12

C                     1.92550000           1.53277000          -2.50119000         
C                     1.15069000           0.87461000          -1.56882000         
C                     1.94327000           0.85235000          -0.44950000         
O                     3.06907000           1.85253000          -1.93129000         
O                     3.08049000           1.44694000          -0.70675000         
O                     1.65113000           0.35950000           0.62490000         
H                    -0.91223000           1.55977000           1.12032000         
H                     1.65901000           1.75632000          -3.52536000         
H                    -0.55357000           0.55018000          -4.27249000         
H                    -0.54454000           2.16474000           1.10925000         
H                    -0.23399000          -0.08093000          -4.24236000         
H                     0.15437000           0.47130000          -1.69261000         
