12

C                     1.18469000           1.62964000          -2.61245000         
C                    -0.17989000           1.10108000          -2.17649000         
C                     2.03232000           0.58276000           0.28667000         
O                     1.95334000           2.02472000          -1.50123000         
O                     2.41375000           0.94037000          -0.95790000         
O                     2.47071000          -0.43810000           0.78764000         
H                     1.32513000           1.19395000           0.83991000         
H                     1.72411000           0.87830000          -3.23428000         
H                     1.02834000           2.52180000          -3.25485000         
H                    -0.71107000           1.87121000          -1.57811000         
H                    -0.06336000           0.18221000          -1.56454000         
H                    -0.78889000           0.85217000          -3.07025000         
