12

C                     1.87557000           0.90402000          -3.32869000         
C                     0.93777000           0.44195000          -2.25263000         
C                     1.39695000           0.89321000          -0.89163000         
O                     2.06044000           2.09359000          -3.53141000         
O                     1.47713000           2.20534000          -0.58178000         
O                     1.68482000           0.06289000          -0.04443000         
H                    -0.86413000           1.43187000           1.15985000         
H                     2.38709000           0.17326000          -3.94673000         
H                     1.22670000           2.89652000          -1.20985000         
H                    -0.60663000           2.07143000           1.32074000         
H                     0.89577000          -0.66886000          -2.28034000         
H                    -0.08226000           0.83488000          -2.44900000         
