12

C                     1.60418000           1.79597000          -2.33970000         
C                     1.37087000           0.59849000          -1.69594000         
C                     2.10946000           0.70203000          -0.54503000         
O                     2.41817000           2.51152000          -1.59119000         
O                     2.72021000           1.85951000          -0.51993000         
O                     2.19496000          -0.14161000           0.32861000         
H                    -0.71805000           1.44609000           1.06639000         
H                    -0.19891000           0.18672000          -4.41745000         
H                     1.19957000           2.11095000          -3.29205000         
H                    -0.32866000           2.03661000           1.03619000         
H                     0.75201000          -0.22691000          -2.02168000         
H                    -0.73459000           0.46073000          -4.04413000         
