12

C                     2.08021000           1.06306000          -2.87396000         
C                     1.51718000           0.10285000          -2.05987000         
C                     1.82682000           0.53137000          -0.79400000         
O                     2.66097000           1.96216000          -2.10601000         
O                     2.51041000           1.64563000          -0.86466000         
O                     1.52187000          -0.02546000           0.24469000         
H                    -0.80427000           1.51072000           1.09270000         
H                     2.05716000           1.09054000          -3.95497000         
H                    -0.70275000           2.16771000          -3.04433000         
H                    -0.38875000           2.08264000           1.05364000         
H                     0.96227000          -0.77852000          -2.35303000         
H                    -0.85192000           1.98740000          -2.37610000         
