12

C                     1.40495000           1.51104000          -2.76777000         
C                     0.61585000           0.62943000          -1.87384000         
C                     1.04401000           1.26001000          -0.59643000         
O                     2.63479000           1.66696000          -2.10010000         
O                     2.41800000           1.50079000          -0.78327000         
O                     0.84102000           0.39664000           0.48840000         
H                    -0.13855000           0.37212000           0.64849000         
H                     1.52767000           1.05118000          -3.77125000         
H                     0.92785000           2.51274000          -2.87224000         
H                     0.54268000           2.24209000          -0.41770000         
H                     1.04912000          -0.39560000          -1.92835000         
H                    -0.47821000           0.59269000          -2.06184000         
