12

C                     1.55150000           1.27496000          -2.96481000         
C                     1.15049000           0.02082000          -2.21234000         
C                     1.42493000          -0.16360000          -0.94219000         
O                     2.18996000           2.26026000          -2.16218000         
O                     1.49315000           2.52827000          -1.05013000         
O                     1.65234000          -0.31871000           0.22250000         
H                    -0.74977000           1.45156000           1.09681000         
H                     2.25482000           0.96156000          -3.76660000         
H                     0.68022000           1.74381000          -3.47498000         
H                    -0.35748000           2.04047000           1.08472000         
H                     0.56465000          -0.72576000          -2.73414000         
H                     0.53438000           2.26645000          -1.13258000         
