12

C                     2.45613000           1.30331000          -3.18291000         
C                    -0.02920000           0.11395000          -1.11756000         
C                     0.93555000           0.76707000          -1.76343000         
O                     2.35733000           2.34672000          -2.21553000         
O                     1.42374000           1.94605000          -1.40239000         
O                     1.54004000           0.33118000          -2.85380000         
H                    -0.78514000           1.90611000           1.94591000         
H                     3.47799000           0.86867000          -3.16471000         
H                     2.22328000           1.70296000          -4.19263000         
H                    -0.35809000           2.36409000           1.61542000         
H                    -0.37478000          -0.84953000          -1.47769000         
H                    -0.47766000           0.53952000          -0.22659000         
