12

C                     0.87682000           1.77550000          -2.95679000         
C                    -0.00528000           0.84192000          -2.57904000         
C                     2.67285000           0.43067000          -0.92478000         
O                     1.89093000           2.20574000          -2.15852000         
O                     2.18670000           1.68853000          -1.03062000         
O                     2.93468000          -0.02820000           0.17404000         
H                    -0.71182000           1.44361000           1.05149000         
H                     2.83407000          -0.17507000          -1.81160000         
H                     0.77399000           2.21938000          -3.94164000         
H                    -0.30781000           2.02292000           1.00247000         
H                    -0.79662000           0.54220000          -3.25841000         
H                     0.04068000           0.37290000          -1.60250000         
