12

C                     1.99325000           1.55713000          -3.02864000         
C                     0.38358000           0.61436000          -1.72125000         
C                     1.70294000           0.56768000          -1.09781000         
O                     0.60299000           1.25594000          -2.95809000         
O                     2.61141000           1.12137000          -1.88193000         
O                     1.95465000           0.08712000          -0.00493000         
H                    -0.76290000           1.53912000           1.38848000         
H                     2.44053000           1.04057000          -3.90398000         
H                     2.13154000           2.65495000          -3.12333000         
H                    -0.35463000           2.10658000           1.27605000         
H                     0.00043000          -0.41524000          -1.88220000         
H                    -0.31458000           1.21051000          -1.09826000         
