12

C                     4.70734000           0.78140000           2.61714000         
C                     5.50056000           1.11701000           1.59753000         
C                     5.01423000           2.03168000           0.50485000         
C                     6.09642000           2.26931000          -0.54153000         
H                     3.69063000           1.15927000           2.68272000         
H                     5.07197000           0.12010000           3.39568000         
H                     6.51013000           0.71815000           1.56689000         
H                     4.13366000           1.57716000           0.00556000         
H                     4.71296000           3.00533000           0.94570000         
H                     5.70563000           2.94292000          -1.33295000         
H                     6.98489000           2.74510000          -0.07411000         
H                     6.39795000           1.30753000          -1.00905000         
