12
22.763835898142133
C        1.408805       1.626312      -1.558928
C        0.565224       0.448900      -1.149934
C        1.333077      -0.783356      -0.866560
O        0.526064       2.677217      -1.749933
O        1.215333       3.817087      -2.292602
O        2.530284      -0.879352      -0.933509
H        0.605884       4.540544      -2.097954
H        2.312877       1.907193      -1.030341
H        1.752371       1.160391      -2.603747
H        0.692669      -1.653481      -0.618604
H       -0.210817       0.293644      -2.225105
H       -0.207439       0.626768      -0.401436
12
21.75474124543689
C        1.409625       1.629491      -1.560550
C        0.566352       0.448319      -1.149197
C        1.336007      -0.781647      -0.865025
O        0.524800       2.677501      -1.752804
O        1.211363       3.819542      -2.297353
O        2.534422      -0.876439      -0.933588
H        0.599994       4.542241      -2.101802
H        2.314471       1.911177      -1.034628
H        1.749987       1.166746      -2.599115
H        0.696198      -1.653371      -0.617701
H       -0.204103       0.293252      -2.216307
H       -0.207996       0.623672      -0.400610
