12
45.72499607852296
C        1.342125       1.762789      -1.204964
C        0.760935       0.582886      -0.832330
C        1.504206      -0.632681      -0.595674
O        0.571441       2.827312      -1.417566
O        1.316146       3.914834      -1.928103
O        2.704810      -0.738887      -0.644933
H        0.665710       4.627451      -1.955464
H        2.413066       1.957350      -1.118584
H        0.630907       0.415104      -3.046813
H        0.862482      -1.500116      -0.367910
H       -0.052285       0.451083      -3.591070
H       -0.253750       0.691150      -0.485713
12
44.66384776421364
C        1.340143       1.759948      -1.203396
C        0.760603       0.584931      -0.830208
C        1.502733      -0.626862      -0.592076
O        0.572277       2.823627      -1.414963
O        1.321087       3.908221      -1.924510
O        2.702530      -0.735528      -0.638229
H        0.674347       4.623035      -1.951370
H        2.412996       1.954994      -1.119554
H        0.626064       0.417807      -3.062934
H        0.859252      -1.493720      -0.366539
H       -0.039944       0.452531      -3.586980
H       -0.254297       0.690126      -0.486560
