12
0.0
C        1.360385       1.563522      -1.705743
C        0.496444       0.384882      -1.273508
C        1.305161      -0.839176      -0.961946
O        0.478307       2.646188      -1.902863
O        1.216934       3.764495      -2.387093
O        2.496664      -0.926895      -1.024379
H        0.668716       4.512006      -2.114112
H        2.099350       1.806461      -0.931794
H        1.892656       1.334869      -2.636194
H        0.679648      -1.699646      -0.652944
H       -0.222616       0.139020      -2.058778
H       -0.082750       0.653976      -0.386358
12
-0.00025716593154356815
C        1.360315       1.563524      -1.705681
C        0.496394       0.384876      -1.273470
C        1.305193      -0.839179      -0.961986
O        0.478286       2.646218      -1.902814
O        1.217097       3.764573      -2.386997
O        2.496804      -0.926832      -1.024440
H        0.668696       4.512017      -2.114453
H        2.099292       1.806442      -0.931727
H        1.892585       1.334878      -2.636151
H        0.679705      -1.699759      -0.652977
H       -0.222680       0.139019      -2.058728
H       -0.082786       0.653924      -0.386286
