12
72.02218897825878
C        1.445164       1.732661      -1.252516
C        0.787843       0.615560      -0.846875
C        1.438377      -0.658338      -0.605333
O        0.619449       2.779090      -1.456559
O        1.182525       3.921032      -2.028260
O        2.647783      -0.817815      -0.665822
H        0.479445       4.578355      -1.950542
H        2.482000       1.940852      -1.093966
H        0.976386       0.555017      -2.912366
H        0.765736      -1.482902      -0.380734
H        0.010843       0.701801      -3.247872
H       -0.150694       0.870428      -0.393219
12
68.35192595063563
C        1.447517       1.726488      -1.248175
C        0.791933       0.609343      -0.838757
C        1.442693      -0.660686      -0.598940
O        0.622670       2.769990      -1.452882
O        1.193355       3.907761      -2.026359
O        2.651412      -0.823952      -0.656127
H        0.502115       4.575400      -1.952803
H        2.483582       1.938079      -1.097104
H        0.971212       0.551794      -2.932439
H        0.768126      -1.483811      -0.376703
H        0.036314       0.691098      -3.252330
H       -0.148592       0.860544      -0.389880
