12

C                     0.74366000           1.41169000          -2.82506000         
C                     0.02121000           0.85656000          -1.63441000         
C                     0.66601000          -0.41409000          -1.17252000         
O                     0.16104000           1.56536000          -3.88629000         
O                     2.74670000           2.57403000           0.03260000         
O                     1.82814000          -0.42170000          -0.79740000         
H                     2.10279000           3.12079000          -0.48404000         
H                     1.79120000           1.68453000          -2.74737000         
H                     3.23177000           2.04860000          -0.65231000         
H                     0.09509000          -1.33659000          -1.15975000         
H                    -1.03878000           0.64957000          -1.89780000         
H                     0.04038000           1.60134000          -0.81135000         
