12

C                     0.84345000           1.03570000          -2.75326000         
C                     0.19218000           0.58811000          -1.47846000         
C                     0.97293000          -0.51216000          -0.82557000         
O                     0.33825000           1.92993000          -3.41263000         
O                     2.25396000           3.34913000          -0.57601000         
O                     2.12314000          -0.32519000          -0.46141000         
H                     1.40544000           3.66559000          -0.97676000         
H                     2.69836000           2.84388000          -1.30246000         
H                     1.76411000           0.57707000          -3.10228000         
H                     0.51121000          -1.48087000          -0.66428000         
H                    -0.83184000           0.22334000          -1.70584000         
H                     0.11801000           1.44556000          -0.77675000         
