12

C                     1.82671000           1.05868000          -3.30724000         
C                     0.27895000           1.22214000          -0.56902000         
C                     1.44752000           0.32891000          -1.00120000         
O                     2.22598000           2.16922000          -2.99534000         
O                     0.44998000           2.53001000          -1.03656000         
O                     1.48625000           0.13494000          -2.37179000         
H                    -0.38480000           3.01658000          -0.81131000         
H                     2.41819000           0.72744000          -0.63274000         
H                     1.77434000           0.78884000          -4.35625000         
H                     1.28972000          -0.66498000          -0.53090000         
H                    -0.66723000           0.79020000          -0.96614000         
H                     0.24358000           1.23812000           0.54279000         
