12

C                     2.09088000           0.55049000          -3.16793000         
C                     0.03018000           1.44344000          -0.14409000         
C                     1.07615000           0.78194000          -0.98972000         
O                     1.16580000           1.10000000          -2.30609000         
O                     0.23452000           2.82955000          -0.11984000         
O                     1.83375000          -0.03765000          -0.48866000         
H                    -0.15730000           3.19200000          -0.95720000         
H                     3.12103000           0.78412000          -2.82342000         
H                     1.94623000           0.98120000          -4.17993000         
H                     1.95460000          -0.55073000          -3.22475000         
H                    -0.98518000           1.20291000          -0.53277000         
H                     0.07851000           1.06283000           0.89871000         
