12

C                     2.49621000           1.73167000          -4.17113000         
C                    -0.34200000           0.11588000           0.64632000         
C                     0.89625000          -0.29514000           0.60419000         
O                     1.74075000           2.54977000          -4.66823000         
O                     0.91115000           2.31776000          -1.45236000         
O                     2.03144000          -0.66999000           0.56377000         
H                     0.10063000           2.70996000          -1.04102000         
H                     3.31374000           2.06214000          -3.53992000         
H                     2.34472000           0.67341000          -4.35237000         
H                     0.58582000           1.50270000          -1.91149000         
H                    -1.01320000          -0.10358000          -0.17674000         
H                    -0.67631000           0.74551000           1.46327000         
