12

C                     2.26208000           2.54170000          -1.87924000         
C                     0.78999000           1.12845000          -0.54616000         
C                     1.01132000          -0.35418000          -0.53617000         
O                     1.49010000           2.60556000          -2.82481000         
O                     1.98121000           1.79358000          -0.78246000         
O                     2.11615000          -0.82932000          -0.74940000         
H                    -0.75042000           1.07097000          -3.79161000         
H                     3.20600000           3.07185000          -1.92974000         
H                    -0.30669000           0.51942000          -3.77583000         
H                     0.17401000          -1.01687000          -0.34642000         
H                     0.02309000           1.36313000          -1.31469000         
H                     0.39236000           1.44583000           0.44083000         
