12

C                     1.74654000           0.22656000          -3.25695000         
C                     0.38667000           2.07308000          -0.33032000         
C                     1.68863000          -0.63492000          -2.06986000         
O                     0.72752000           0.73688000          -3.69333000         
O                     0.08606000           3.33401000           0.19289000         
O                     2.70810000          -1.14220000          -1.63126000         
H                     0.21595000           3.97588000          -0.55268000         
H                     1.44026000           2.04370000          -0.68347000         
H                     2.69438000           0.41458000          -3.75058000         
H                     0.74091000          -0.82093000          -1.57480000         
H                    -0.31492000           1.82036000          -1.15461000         
H                     0.26910000           1.31310000           0.46926000         
