12

C                     2.09219000           2.79388000          -2.65326000         
C                     0.05798000           0.19334000          -1.18934000         
C                     0.98997000          -0.76659000          -0.52754000         
O                     1.29330000           2.86608000          -3.57300000         
O                     1.74756000           3.20193000          -1.41463000         
O                     2.15554000          -0.45869000          -0.33843000         
H                     0.86654000           3.55615000          -1.22776000         
H                     3.08442000           2.39449000          -2.83110000         
H                     0.43153000           0.43583000          -2.20559000         
H                     0.63330000          -1.74175000          -0.21272000         
H                    -0.95209000          -0.25792000          -1.27492000         
H                    -0.01105000           1.12332000          -0.58740000         
