12

C                     2.24001000           1.87451000          -3.82699000         
C                    -0.71609000           1.69714000           0.41697000         
C                     1.53896000          -0.27519000          -1.10773000         
O                     1.39128000           2.67601000          -4.17917000         
O                     0.19680000           2.45511000           0.69857000         
O                     2.71753000          -0.36072000          -0.80529000         
H                     1.15621000           0.64110000          -1.54069000         
H                     3.03547000           2.18491000          -3.15847000         
H                     2.19300000           0.84753000          -4.17239000         
H                     0.87182000          -1.11260000          -0.93943000         
H                    -1.16176000           1.72915000          -0.57124000         
H                    -1.07402000           0.98315000           1.15017000         
