12

C                     2.06521000           1.69293000          -3.47487000         
C                    -0.67229000           1.09284000          -0.70135000         
C                     2.35571000          -0.73027000          -0.11307000         
O                     1.26490000           2.50304000          -3.91104000         
O                     0.51315000           1.83410000          -0.69706000         
O                     3.16826000          -0.26844000          -0.74505000         
H                     0.24119000           2.78719000          -0.65515000         
H                     2.86190000           2.01910000          -2.81541000         
H                     1.97672000           0.64560000          -3.74127000         
H                    -0.42752000           0.02193000          -0.85509000         
H                    -1.32887000           1.41473000          -1.53866000         
H                    -1.19206000           1.19756000           0.27498000         
