12

C                     2.29119000           2.42869000          -4.65045000         
C                     0.08206000           0.93967000          -0.36190000         
C                     0.84031000          -0.32404000          -0.08476000         
O                     1.30031000           2.96182000          -4.57677000         
O                     0.93583000           2.04935000          -0.30139000         
O                     2.03710000          -0.30425000           0.15812000         
H                     0.39314000           2.82988000          -0.58653000         
H                     2.65065000           0.78734000          -2.30724000         
H                     2.10863000           0.44870000          -2.61223000         
H                     0.31637000          -1.27367000          -0.10258000         
H                    -0.36369000           0.85951000          -1.37809000         
H                    -0.72059000           1.04162000           0.40015000         
