12

C                     1.19889000           1.23941000          -3.36318000         
C                     0.57470000           1.16885000          -2.00020000         
C                     1.05533000          -0.03712000          -1.24559000         
O                     0.90623000           2.14944000          -4.12178000         
O                     0.90023000           2.33257000          -1.28463000         
O                     2.24002000          -0.17685000          -0.98226000         
H                     0.06966000           2.65602000          -0.84711000         
H                     2.18428000           1.70931000           1.18175000         
H                     1.91118000           0.48746000          -3.69041000         
H                     0.34546000          -0.79318000          -0.92602000         
H                    -0.52930000           1.08366000          -2.14022000         
H                     1.53251000           1.52050000           1.38395000         
