12

C                     2.07472000           1.71326000          -3.51446000         
C                    -0.15227000           1.61229000          -0.51029000         
C                     1.44232000          -0.16544000          -0.46919000         
O                     1.26176000           2.52478000          -3.92361000         
O                     1.14474000           1.15258000          -0.49688000         
O                     2.60840000          -0.52242000          -0.46782000         
H                    -0.14512000           2.72123000          -0.53925000         
H                     2.88530000           2.03529000          -2.87004000         
H                     1.98317000           0.66811000          -3.78849000         
H                     0.65494000          -0.91399000          -0.45112000         
H                    -0.68308000           1.23441000          -1.41056000         
H                    -0.68567000           1.27998000           0.40602000         
