12

C                     2.04519000           1.66343000          -3.42920000         
C                     0.24145000           2.14846000          -0.22191000         
C                     0.68211000          -1.38258000          -0.43788000         
O                     1.27885000           2.47049000          -3.92762000         
O                     0.76653000           3.21989000          -0.47893000         
O                     1.75166000          -0.80377000          -0.52871000         
H                     0.61799000           3.65480000          -1.33056000         
H                     2.80767000           1.99749000          -2.73422000         
H                     1.96348000           0.61179000          -3.68025000         
H                     0.56298000          -2.37163000          -0.86540000         
H                    -0.40464000           1.65791000          -0.94553000         
H                    -0.15037000          -0.90870000           0.07053000         
