12

C                     2.16239000           1.72283000          -3.68999000         
C                     0.70542000           0.77148000          -0.81761000         
C                     1.24762000          -0.57594000          -0.59568000         
O                     1.33562000           2.53348000          -4.07239000         
O                     1.37039000           1.76129000          -0.55732000         
O                     2.37439000          -0.72821000          -0.15040000         
H                    -1.07188000           3.08206000           0.20252000         
H                     3.00830000           2.05023000          -3.09560000         
H                     2.04554000           0.67266000          -3.93348000         
H                     0.64118000          -1.44387000          -0.82980000         
H                    -0.29575000           0.88756000          -1.21940000         
H                    -1.13402000           2.60653000           0.72346000         
