12

C                     2.18532000           1.77981000          -3.73456000         
C                     0.63092000           1.27743000          -0.85316000         
C                     1.58275000           0.40964000          -0.64131000         
O                     1.36678000           2.58755000          -4.14003000         
O                     0.81399000           2.56995000          -0.52211000         
O                     2.45495000          -0.38646000          -0.44926000         
H                     0.11726000           3.22129000          -0.68150000         
H                     2.99750000           2.10564000          -3.09399000         
H                     2.09317000           0.73296000          -4.00199000         
H                    -0.70876000          -1.21962000           0.46649000         
H                    -0.30227000           0.95415000          -1.30391000         
H                    -0.84240000          -0.69223000           0.91962000         
