54

C                     4.33381000          -2.36358000          -2.43138000         
C                     3.79270000          -3.38468000          -1.77057000         
H                     5.33056000          -2.01627000          -2.18090000         
H                     3.77888000          -1.86885000          -3.22113000         
H                     4.34646000          -3.87533000          -0.97639000         
H                     2.79267000          -3.72727000          -2.01571000         
C                     4.70734000           0.78140000           2.61714000         
C                     5.50056000           1.11701000           1.59753000         
C                     5.01423000           2.03168000           0.50485000         
C                     6.09642000           2.26931000          -0.54153000         
Ga                    2.28712000          -0.83212000           0.44231000         
H                     3.69063000           1.15927000           2.68272000         
H                     5.07197000           0.12010000           3.39568000         
H                     3.74019000          -1.47223000           0.22065000         
H                     6.51013000           0.71815000           1.56689000         
H                     4.13366000           1.57716000           0.00556000         
H                     4.71296000           3.00533000           0.94570000         
H                     5.70563000           2.94292000          -1.33295000         
H                     6.98489000           2.74510000          -0.07411000         
H                     6.39795000           1.30753000          -1.00905000         
O                     1.08770000          -1.80470000           1.22140000         
O                     1.67680000           0.28240000          -0.76780000         
Si                   -0.18910000           2.52570000           1.45650000         
Si                   -2.20450000           0.04820000           2.29670000         
Si                   -0.37930000          -2.49560000           1.48710000         
Si                   -1.48520000           2.41820000          -1.52480000         
Si                   -3.58550000           0.12010000          -0.65520000         
Si                   -1.51340000          -2.20240000          -1.50620000         
Si                    0.72220000           0.12590000          -2.12600000         
O                    -1.09950000           1.27420000           2.10140000         
O                    -1.43520000          -1.43870000           2.28490000         
O                     1.40800000           2.06640000           1.15140000         
O                    -0.89920000           2.89960000          -0.03040000         
O                    -3.24750000           0.08310000           0.97970000         
O                    -1.12770000          -2.82760000          -0.00070000         
O                    -2.85290000           1.47760000          -1.32190000         
O                    -2.88410000          -1.24120000          -1.34000000         
O                    -0.24890000          -1.23700000          -2.01090000         
O                    -0.29690000           1.45890000          -2.23350000         
O                    -0.21440000          -3.91510000           2.38410000         
O                    -3.02050000           0.32880000           3.74170000         
O                    -5.24280000           0.15760000          -0.92020000         
O                    -1.74920000          -3.39810000          -2.66480000         
O                    -0.19530000           3.83320000           2.51440000         
O                    -1.89900000           3.73090000          -2.48750000         
O                     1.73100000          -0.00740000          -3.47980000         
H                     1.63520000           1.68970000           0.26010000         
H                    -0.78750000           3.90300000           3.27850000         
H                    -3.72880000          -0.22990000           4.09380000         
H                    -0.96200000          -4.40940000           2.75200000         
H                    -2.49150000          -4.02020000          -2.67010000         
H                     1.40280000          -0.03520000          -4.39210000         
H                    -5.68060000           0.77730000          -1.52260000         
H                    -1.42440000           4.57520000          -2.49850000         
