54

C                     4.39335000          -2.50237000          -2.29008000         
C                     3.81382000          -3.49220000          -1.61450000         
H                     5.40442000          -2.19170000          -2.04386000         
H                     3.86011000          -1.99530000          -3.08572000         
H                     4.34779000          -3.99407000          -0.81420000         
H                     2.80173000          -3.79786000          -1.85773000         
C                     4.29596000          -0.42296000           2.42155000         
C                     4.17731000          -0.43262000           0.89760000         
C                     4.53557000           0.92861000           0.25553000         
C                     6.00111000           1.33342000           0.41149000         
Ga                    2.29677000          -0.91947000           0.30352000         
H                     3.62126000           0.34372000           2.85651000         
H                     5.33930000          -0.20865000           2.73201000         
H                     4.02078000          -1.41973000           2.82072000         
H                     4.84650000          -1.21478000           0.47805000         
H                     4.33660000           0.87661000          -0.83681000         
H                     3.90350000           1.73281000           0.68697000         
H                     6.17026000           2.30716000          -0.10553000         
H                     6.27693000           1.46176000           1.47531000         
H                     6.65958000           0.57328000          -0.05976000         
O                     1.08770000          -1.80470000           1.22140000         
O                     1.67680000           0.28240000          -0.76780000         
Si                   -0.18910000           2.52570000           1.45650000         
Si                   -2.20450000           0.04820000           2.29670000         
Si                   -0.37930000          -2.49560000           1.48710000         
Si                   -1.48520000           2.41820000          -1.52480000         
Si                   -3.58550000           0.12010000          -0.65520000         
Si                   -1.51340000          -2.20240000          -1.50620000         
Si                    0.72220000           0.12590000          -2.12600000         
O                    -1.09950000           1.27420000           2.10140000         
O                    -1.43520000          -1.43870000           2.28490000         
O                     1.40800000           2.06640000           1.15140000         
O                    -0.89920000           2.89960000          -0.03040000         
O                    -3.24750000           0.08310000           0.97970000         
O                    -1.12770000          -2.82760000          -0.00070000         
O                    -2.85290000           1.47760000          -1.32190000         
O                    -2.88410000          -1.24120000          -1.34000000         
O                    -0.24890000          -1.23700000          -2.01090000         
O                    -0.29690000           1.45890000          -2.23350000         
O                    -0.21440000          -3.91510000           2.38410000         
O                    -3.02050000           0.32880000           3.74170000         
O                    -5.24280000           0.15760000          -0.92020000         
O                    -1.74920000          -3.39810000          -2.66480000         
O                    -0.19530000           3.83320000           2.51440000         
O                    -1.89900000           3.73090000          -2.48750000         
O                     1.73100000          -0.00740000          -3.47980000         
H                     1.63520000           1.68970000           0.26010000         
H                    -0.78750000           3.90300000           3.27850000         
H                    -3.72880000          -0.22990000           4.09380000         
H                    -0.96200000          -4.40940000           2.75200000         
H                    -2.49150000          -4.02020000          -2.67010000         
H                     1.40280000          -0.03520000          -4.39210000         
H                    -5.68060000           0.77730000          -1.52260000         
H                    -1.42440000           4.57520000          -2.49850000         
