12
37.67393743793946
C        1.145274       1.501100      -2.013596
C        0.057947       0.842498      -1.173109
C        1.926666      -1.726028      -0.826648
O        0.770049       2.751885      -2.532253
O        0.673468       3.700473      -1.464691
O        2.845614      -1.436977      -1.415468
H        0.544693       4.527498      -1.946311
H        2.069054       1.606256      -1.429867
H        1.351922       0.922761      -2.918553
H        0.395262      -0.138118      -0.836524
H       -0.850794       0.725815      -1.758124
H       -0.158155       1.460427      -0.305376
12
37.673814383331774
C        1.145352       1.501139      -2.013673
C        0.058038       0.842548      -1.173144
C        1.926523      -1.726115      -0.826517
O        0.770063       2.751926      -2.532283
O        0.673475       3.700467      -1.464670
O        2.845473      -1.437183      -1.415337
H        0.544406       4.527370      -1.946175
H        2.069157       1.606304      -1.429982
H        1.351973       0.922816      -2.918647
H        0.395285      -0.138085      -0.836510
H       -0.850719       0.725886      -1.758149
H       -0.158028       1.460515      -0.305433
