
  xtb     06012121373D
 xtb: 6.4.0 (d4b70c2)
 47 48  0     0  0            999 V2000
    5.1970   -5.5373   -0.0099 C   0  0  0  0  0  0  0  0  0  0  0  0
    4.4689   -6.0684    1.2308 C   0  0  0  0  0  0  0  0  0  0  0  0
    4.4538   -5.0750    2.4016 C   0  0  0  0  0  0  0  0  0  0  0  0
    4.9405   -6.9988    1.5579 H   0  0  0  0  0  0  0  0  0  0  0  0
    3.4369   -6.2895    0.9655 H   0  0  0  0  0  0  0  0  0  0  0  0
    3.7877   -3.7844    2.0422 C   0  0  0  0  0  0  0  0  0  0  0  0
    5.4750   -4.8728    2.7259 H   0  0  0  0  0  0  0  0  0  0  0  0
    3.9262   -5.5421    3.2384 H   0  0  0  0  0  0  0  0  0  0  0  0
    6.7108   -5.6477    0.1449 C   0  0  0  0  0  0  0  0  0  0  0  0
    7.0477   -5.1120    1.0285 H   0  0  0  0  0  0  0  0  0  0  0  0
    7.2153   -5.2233   -0.7199 H   0  0  0  0  0  0  0  0  0  0  0  0
    7.0098   -6.6903    0.2394 H   0  0  0  0  0  0  0  0  0  0  0  0
    4.7330   -6.2955   -1.2711 C   0  0  0  0  0  0  0  0  0  0  0  0
    4.9267   -4.4855   -0.1480 H   0  0  0  0  0  0  0  0  0  0  0  0
    3.3012   -5.9714   -1.5514 C   0  0  0  0  0  0  0  0  0  0  0  0
    4.8665   -7.3687   -1.1225 H   0  0  0  0  0  0  0  0  0  0  0  0
    5.3520   -5.9788   -2.1121 H   0  0  0  0  0  0  0  0  0  0  0  0
    2.9151   -4.9246   -2.2634 C   0  0  0  0  0  0  0  0  0  0  0  0
    1.4762   -4.4686   -2.3136 C   0  0  0  0  0  0  0  0  0  0  0  0
    2.4827   -3.5919    1.8204 C   0  0  0  0  0  0  0  0  0  0  0  0
    2.0639   -2.2219    1.4513 C   0  0  0  0  0  0  0  0  0  0  0  0
    1.4243   -4.6456    1.9349 C   0  0  0  0  0  0  0  0  0  0  0  0
    0.5556   -4.2532    2.4629 H   0  0  0  0  0  0  0  0  0  0  0  0
    1.7973   -5.5069    2.4813 H   0  0  0  0  0  0  0  0  0  0  0  0
    1.1086   -4.9624    0.9428 H   0  0  0  0  0  0  0  0  0  0  0  0
    2.6050   -1.2370    1.9109 O   0  0  0  0  0  0  0  0  0  0  0  0
    0.9162   -2.0624    0.4586 C   0  0  0  0  0  0  0  0  0  0  0  0
    1.3298   -2.4778   -0.9614 C   0  0  0  0  0  0  0  0  0  0  0  0
    0.6223   -1.0107    0.4559 H   0  0  0  0  0  0  0  0  0  0  0  0
    0.0633   -2.6745    0.7520 H   0  0  0  0  0  0  0  0  0  0  0  0
    3.1608   -2.1202   -1.1989 S   0  0  0  0  0  0  0  0  0  0  0  0
    3.2991   -0.3303   -0.9336 C   0  0  0  0  0  0  0  0  0  0  0  0
    2.6799    0.2102   -1.6425 H   0  0  0  0  0  0  0  0  0  0  0  0
    4.3439   -0.1008   -1.1175 H   0  0  0  0  0  0  0  0  0  0  0  0
    3.0443   -0.0834    0.0927 H   0  0  0  0  0  0  0  0  0  0  0  0
    1.1325   -3.8508   -1.0646 O   0  0  0  0  0  0  0  0  0  0  0  0
    1.2090   -3.5910   -3.4942 C   0  0  0  0  0  0  0  0  0  0  0  0
    0.7736   -2.3486   -3.3742 C   0  0  0  0  0  0  0  0  0  0  0  0
    0.5188   -1.7388   -2.0307 C   0  0  0  0  0  0  0  0  0  0  0  0
    4.4376   -2.9277    1.9214 H   0  0  0  0  0  0  0  0  0  0  0  0
    0.5895   -1.7289   -4.2393 H   0  0  0  0  0  0  0  0  0  0  0  0
    0.7623   -0.6762   -2.0384 H   0  0  0  0  0  0  0  0  0  0  0  0
   -0.5436   -1.8326   -1.7774 H   0  0  0  0  0  0  0  0  0  0  0  0
    0.8179   -5.3485   -2.3495 H   0  0  0  0  0  0  0  0  0  0  0  0
    1.4161   -4.0386   -4.4539 H   0  0  0  0  0  0  0  0  0  0  0  0
    2.5538   -6.5911   -1.0731 H   0  0  0  0  0  0  0  0  0  0  0  0
    3.6397   -4.2896   -2.7504 H   0  0  0  0  0  0  0  0  0  0  0  0
  1  2  1  0  0  0  0
  2  3  1  0  0  0  0
  2  4  1  0  0  0  0
  2  5  1  0  0  0  0
  3  6  1  0  0  0  0
  3  7  1  0  0  0  0
  3  8  1  0  0  0  0
  1  9  1  0  0  0  0
  9 10  1  0  0  0  0
  9 11  1  0  0  0  0
  9 12  1  0  0  0  0
  1 13  1  0  0  0  0
  1 14  1  0  0  0  0
 13 15  1  0  0  0  0
 13 16  1  0  0  0  0
 13 17  1  0  0  0  0
 15 18  2  0  0  0  0
 18 19  1  0  0  0  0
  6 20  2  0  0  0  0
 20 21  1  0  0  0  0
 20 22  1  0  0  0  0
 22 23  1  0  0  0  0
 22 24  1  0  0  0  0
 22 25  1  0  0  0  0
 21 26  2  0  0  0  0
 21 27  1  0  0  0  0
 27 28  1  0  0  0  0
 27 29  1  0  0  0  0
 27 30  1  0  0  0  0
 28 31  1  0  0  0  0
 31 32  1  0  0  0  0
 32 33  1  0  0  0  0
 32 34  1  0  0  0  0
 32 35  1  0  0  0  0
 19 36  1  0  0  0  0
 28 36  1  0  0  0  0
 19 37  1  0  0  0  0
 37 38  2  0  0  0  0
 28 39  1  0  0  0  0
 38 39  1  0  0  0  0
  6 40  1  0  0  0  0
 38 41  1  0  0  0  0
 39 42  1  0  0  0  0
 39 43  1  0  0  0  0
 19 44  1  0  0  0  0
 37 45  1  0  0  0  0
 15 46  1  0  0  0  0
 18 47  1  0  0  0  0
M  END
