
  xtb     06022109353D
 xtb: 6.4.0 (d4b70c2)
 47 48  0     0  0            999 V2000
    5.0382   -6.4464   -0.6089 C   0  0  0  0  0  0  0  0  0  0  0  0
    4.7050   -6.2719    0.8878 C   0  0  0  0  0  0  0  0  0  0  0  0
    5.1078   -4.8965    1.4510 C   0  0  0  0  0  0  0  0  0  0  0  0
    5.2206   -7.0404    1.4685 H   0  0  0  0  0  0  0  0  0  0  0  0
    3.6357   -6.4151    1.0390 H   0  0  0  0  0  0  0  0  0  0  0  0
    4.4681   -3.7829    0.6763 C   0  0  0  0  0  0  0  0  0  0  0  0
    6.1928   -4.7949    1.3907 H   0  0  0  0  0  0  0  0  0  0  0  0
    4.8295   -4.8531    2.5059 H   0  0  0  0  0  0  0  0  0  0  0  0
    6.0483   -7.5735   -0.8158 C   0  0  0  0  0  0  0  0  0  0  0  0
    6.9596   -7.3751   -0.2560 H   0  0  0  0  0  0  0  0  0  0  0  0
    6.3085   -7.6692   -1.8679 H   0  0  0  0  0  0  0  0  0  0  0  0
    5.6367   -8.5230   -0.4787 H   0  0  0  0  0  0  0  0  0  0  0  0
    3.7770   -6.7181   -1.4555 C   0  0  0  0  0  0  0  0  0  0  0  0
    5.4836   -5.5190   -0.9762 H   0  0  0  0  0  0  0  0  0  0  0  0
    2.7481   -5.6430   -1.2700 C   0  0  0  0  0  0  0  0  0  0  0  0
    3.3595   -7.6870   -1.1754 H   0  0  0  0  0  0  0  0  0  0  0  0
    4.0769   -6.7693   -2.5049 H   0  0  0  0  0  0  0  0  0  0  0  0
    2.8842   -4.4103   -1.7301 C   0  0  0  0  0  0  0  0  0  0  0  0
    1.9753   -3.2645   -1.3793 C   0  0  0  0  0  0  0  0  0  0  0  0
    3.2134   -3.3573    0.7764 C   0  0  0  0  0  0  0  0  0  0  0  0
    2.6702   -2.3954   -0.2810 C   0  0  0  0  0  0  0  0  0  0  0  0
    2.2451   -3.8828    1.7961 C   0  0  0  0  0  0  0  0  0  0  0  0
    1.2826   -4.1135    1.3435 H   0  0  0  0  0  0  0  0  0  0  0  0
    2.0871   -3.1513    2.5892 H   0  0  0  0  0  0  0  0  0  0  0  0
    2.6295   -4.7874    2.2536 H   0  0  0  0  0  0  0  0  0  0  0  0
    3.7801   -1.7201   -0.8321 O   0  0  0  0  0  0  0  0  0  0  0  0
    1.6761   -1.3863    0.3714 C   0  0  0  0  0  0  0  0  0  0  0  0
    0.7740   -0.6252   -0.5501 C   0  0  0  0  0  0  0  0  0  0  0  0
    2.2890   -0.6652    0.9193 H   0  0  0  0  0  0  0  0  0  0  0  0
    1.0374   -1.9287    1.0646 H   0  0  0  0  0  0  0  0  0  0  0  0
   -0.7582   -1.4863   -0.8531 S   0  0  0  0  0  0  0  0  0  0  0  0
   -1.5714   -0.3355   -1.9867 C   0  0  0  0  0  0  0  0  0  0  0  0
   -0.9783    0.5773   -1.9826 H   0  0  0  0  0  0  0  0  0  0  0  0
   -2.5775   -0.1497   -1.6269 H   0  0  0  0  0  0  0  0  0  0  0  0
   -1.5960   -0.7754   -2.9793 H   0  0  0  0  0  0  0  0  0  0  0  0
    0.9483    0.4791   -0.9896 O   0  0  0  0  0  0  0  0  0  0  0  0
    1.7248   -2.4288   -2.5976 C   0  0  0  0  0  0  0  0  0  0  0  0
    2.4593   -1.3613   -2.8636 C   0  0  0  0  0  0  0  0  0  0  0  0
    3.5237   -0.8745   -1.9359 C   0  0  0  0  0  0  0  0  0  0  0  0
    5.0861   -3.3313   -0.0839 H   0  0  0  0  0  0  0  0  0  0  0  0
    2.2989   -0.7545   -3.7421 H   0  0  0  0  0  0  0  0  0  0  0  0
    4.4807   -0.7988   -2.4653 H   0  0  0  0  0  0  0  0  0  0  0  0
    3.2574    0.1366   -1.5883 H   0  0  0  0  0  0  0  0  0  0  0  0
    1.0327   -3.6507   -0.9813 H   0  0  0  0  0  0  0  0  0  0  0  0
    0.9484   -2.7673   -3.2685 H   0  0  0  0  0  0  0  0  0  0  0  0
    1.8860   -5.8935   -0.6663 H   0  0  0  0  0  0  0  0  0  0  0  0
    3.7397   -4.1434   -2.3351 H   0  0  0  0  0  0  0  0  0  0  0  0
  1  2  1  0  0  0  0
  2  3  1  0  0  0  0
  2  4  1  0  0  0  0
  2  5  1  0  0  0  0
  3  6  1  0  0  0  0
  3  7  1  0  0  0  0
  3  8  1  0  0  0  0
  1  9  1  0  0  0  0
  9 10  1  0  0  0  0
  9 11  1  0  0  0  0
  9 12  1  0  0  0  0
  1 13  1  0  0  0  0
  1 14  1  0  0  0  0
 13 15  1  0  0  0  0
 13 16  1  0  0  0  0
 13 17  1  0  0  0  0
 15 18  2  0  0  0  0
 18 19  1  0  0  0  0
  6 20  2  0  0  0  0
 19 21  1  0  0  0  0
 20 21  1  0  0  0  0
 20 22  1  0  0  0  0
 22 23  1  0  0  0  0
 22 24  1  0  0  0  0
 22 25  1  0  0  0  0
 21 26  1  0  0  0  0
 21 27  1  0  0  0  0
 27 28  1  0  0  0  0
 27 29  1  0  0  0  0
 27 30  1  0  0  0  0
 28 31  1  0  0  0  0
 31 32  1  0  0  0  0
 32 33  1  0  0  0  0
 32 34  1  0  0  0  0
 32 35  1  0  0  0  0
 28 36  2  0  0  0  0
 19 37  1  0  0  0  0
 37 38  2  0  0  0  0
 26 39  1  0  0  0  0
 38 39  1  0  0  0  0
  6 40  1  0  0  0  0
 38 41  1  0  0  0  0
 39 42  1  0  0  0  0
 39 43  1  0  0  0  0
 19 44  1  0  0  0  0
 37 45  1  0  0  0  0
 15 46  1  0  0  0  0
 18 47  1  0  0  0  0
M  END
