60

C                    -4.51062000           0.41306000          -2.31964000         
C                    -3.16281000           1.02526000          -1.90882000         
H                    -4.92903000           1.09663000          -3.09092000         
H                    -4.30375000          -0.55163000          -2.83497000         
H                    -3.26829000           2.08357000          -1.62298000         
H                    -2.49388000           1.03080000          -2.79665000         
C                    -5.62542000           0.14668000          -1.25232000         
C                    -6.10568000           1.41197000          -0.47299000         
C                    -5.38102000          -1.13691000          -0.40427000         
C                    -5.21301000           2.13656000           0.56861000         
C                    -6.60806000          -1.60180000           0.37573000         
C                    -4.90472000           1.37320000           1.85525000         
Ga                   -2.22981000           0.00480000          -0.49077000         
H                    -6.49395000          -0.13858000          -1.88742000         
H                    -7.06060000           1.16455000           0.03992000         
H                    -6.36141000           2.16900000          -1.24432000         
H                    -5.10479000          -1.96448000          -1.09417000         
H                    -4.56427000          -1.04323000           0.31556000         
H                    -5.77692000           3.04143000           0.88079000         
H                    -4.26923000           2.50447000           0.14164000         
H                    -6.36319000          -2.54766000           0.90591000         
H                    -6.90613000          -0.85325000           1.13538000         
H                    -7.45380000          -1.79411000          -0.31590000         
H                    -4.24002000           0.51247000           1.69034000         
H                    -5.84175000           1.04130000           2.34635000         
H                    -4.36249000           2.04874000           2.55206000         
O                    -1.60900000          -1.49110000          -1.02230000         
O                    -1.26340000           0.85400000           0.66360000         
Si                    1.39370000           2.65740000          -1.22790000         
Si                    2.19470000          -0.38240000          -2.24610000         
Si                   -0.28860000          -2.38260000          -1.44280000         
Si                    2.54790000           1.87280000           1.62120000         
Si                    3.70520000          -0.95550000           0.58190000         
Si                    1.03450000          -2.52340000           1.43530000         
Si                   -0.35960000           0.41250000           2.01420000         
O                     1.68160000           1.18240000          -1.95610000         
O                     0.88940000          -1.39930000          -2.14310000         
O                    -0.23300000           2.81700000          -0.81580000         
O                     2.34550000           2.71550000           0.17640000         
O                     3.27790000          -0.75120000          -1.01710000         
O                     0.45440000          -3.03040000          -0.05710000         
O                     3.48020000           0.50800000           1.38020000         
O                     2.64790000          -2.07260000           1.25960000         
O                     0.17750000          -1.16920000           1.89710000         
O                     1.00660000           1.38200000           2.07290000         
O                    -0.72770000          -3.61760000          -2.50520000         
O                     2.88130000          -0.56960000          -3.76990000         
O                     5.30480000          -1.45340000           0.67810000         
O                     0.85650000          -3.69580000           2.62750000         
O                     1.84890000           3.86160000          -2.31310000         
O                     3.30880000           2.80890000           2.79020000         
O                    -1.31420000           0.58120000           3.39770000         
H                     3.10710000           3.73860000           2.97100000         
H                    -0.69670000           2.17470000          -0.20450000         
H                     1.72420000           4.80960000          -2.15980000         
H                     3.64700000          -0.07310000          -4.09490000         
H                    -0.08700000          -4.17630000          -2.97090000         
H                     1.16180000          -4.61160000           2.55040000         
H                    -1.06430000           0.23090000           4.26690000         
H                     5.87860000          -1.31420000           1.44580000         
