54

C                    -5.31889000          -0.18104000          -0.11092000         
C                    -5.86451000           1.13311000           0.51274000         
C                    -4.02222000          -0.73334000           0.51137000         
C                    -4.90299000           2.32740000           0.64570000         
C                    -6.42911000          -1.24268000          -0.02074000         
C                    -4.04265000           2.26598000           1.91181000         
Ga                   -2.33398000          -0.04014000          -0.39622000         
H                    -5.12417000          -0.02020000          -1.19482000         
H                    -6.31692000           0.94480000           1.51196000         
H                    -6.69135000           1.45553000          -0.15905000         
H                    -3.90810000          -1.79209000           0.19338000         
H                    -4.05690000          -0.75629000           1.62070000         
H                    -5.52194000           3.24311000           0.76584000         
H                    -4.29469000           2.44732000          -0.27485000         
H                    -6.66759000          -1.47415000           1.03973000         
H                    -7.35163000          -0.88547000          -0.52701000         
H                    -6.11361000          -2.18133000          -0.52541000         
H                    -3.38279000           1.38939000           1.93959000         
H                    -4.69289000           2.22530000           2.81265000         
H                    -3.40984000           3.17411000           1.98103000         
O                    -1.60900000          -1.49110000          -1.02230000         
O                    -1.26340000           0.85400000           0.66360000         
Si                    1.39370000           2.65740000          -1.22790000         
Si                    2.19470000          -0.38240000          -2.24610000         
Si                   -0.28860000          -2.38260000          -1.44280000         
Si                    2.54790000           1.87280000           1.62120000         
Si                    3.70520000          -0.95550000           0.58190000         
Si                    1.03450000          -2.52340000           1.43530000         
Si                   -0.35960000           0.41250000           2.01420000         
O                     1.68160000           1.18240000          -1.95610000         
O                     0.88940000          -1.39930000          -2.14310000         
O                    -0.23300000           2.81700000          -0.81580000         
O                     2.34550000           2.71550000           0.17640000         
O                     3.27790000          -0.75120000          -1.01710000         
O                     0.45440000          -3.03040000          -0.05710000         
O                     3.48020000           0.50800000           1.38020000         
O                     2.64790000          -2.07260000           1.25960000         
O                     0.17750000          -1.16920000           1.89710000         
O                     1.00660000           1.38200000           2.07290000         
O                    -0.72770000          -3.61760000          -2.50520000         
O                     2.88130000          -0.56960000          -3.76990000         
O                     5.30480000          -1.45340000           0.67810000         
O                     0.85650000          -3.69580000           2.62750000         
O                     1.84890000           3.86160000          -2.31310000         
O                     3.30880000           2.80890000           2.79020000         
O                    -1.31420000           0.58120000           3.39770000         
H                     3.10710000           3.73860000           2.97100000         
H                    -0.69670000           2.17470000          -0.20450000         
H                     1.72420000           4.80960000          -2.15980000         
H                     3.64700000          -0.07310000          -4.09490000         
H                    -0.08700000          -4.17630000          -2.97090000         
H                     1.16180000          -4.61160000           2.55040000         
H                    -1.06430000           0.23090000           4.26690000         
H                     5.87860000          -1.31420000           1.44580000         
