18

C                    -5.98868000           0.48606000          -0.18719000         
C                    -6.01263000           1.96990000           0.08937000         
C                    -6.20284000          -0.43510000           0.76559000         
C                    -4.80597000           2.51697000           0.87927000         
C                    -6.18673000          -1.90586000           0.46726000         
C                    -4.63906000           1.95704000           2.29045000         
H                    -5.82361000           0.16482000          -1.21313000         
H                    -6.96684000           2.23496000           0.59232000         
H                    -5.99265000           2.48769000          -0.89284000         
H                    -6.40439000          -0.13079000           1.78661000         
H                    -4.93452000           3.61765000           0.96369000         
H                    -3.87309000           2.33839000           0.30745000         
H                    -5.40551000          -2.39567000           1.08581000         
H                    -7.17433000          -2.34293000           0.72163000         
H                    -5.97004000          -2.11264000          -0.60274000         
H                    -4.40581000           0.87649000           2.27381000         
H                    -5.55790000           2.13851000           2.88892000         
H                    -3.78547000           2.46685000           2.78696000         
