6

C                    -1.93650000           1.31070000          -3.70263000         
C                    -2.66900000           2.37009000          -3.38461000         
H                    -2.41071000           0.41402000          -4.09535000         
H                    -0.85879000           1.32486000          -3.56832000         
H                    -3.74664000           2.34819000          -3.50969000         
H                    -2.19676000           3.26097000          -2.98195000         
