12

C                    -6.22430000          -1.08138000          -1.19836000         
C                    -7.01819000          -0.03279000          -0.95534000         
C                    -5.81386000          -2.04923000          -0.11893000         
C                    -7.02004000          -2.76464000           0.47819000         
H                    -5.84318000          -1.23074000          -2.20379000         
H                    -7.40501000           0.16719000           0.03862000         
H                    -7.27105000           0.65104000          -1.76123000         
H                    -5.12545000          -2.80221000          -0.55899000         
H                    -5.26638000          -1.51723000           0.68350000         
H                    -6.67519000          -3.48093000           1.25084000         
H                    -7.71009000          -2.03813000           0.95274000         
H                    -7.56171000          -3.32159000          -0.31691000         
