18

C                    -5.92022000           0.00079000          -0.60087000         
C                    -5.64970000           1.32504000          -0.50136000         
C                    -5.84764000          -1.09530000           0.43699000         
C                    -5.18253000           2.20969000           0.64584000         
C                    -7.19120000          -1.79025000           0.59104000         
C                    -4.96342000           1.61677000           2.03360000         
H                    -6.23336000          -0.34056000          -1.58571000         
H                    -5.77912000           1.88443000          -1.42556000         
H                    -5.11639000          -1.85309000           0.08295000         
H                    -5.52530000          -0.75902000           1.42898000         
H                    -5.93755000           3.01771000           0.75748000         
H                    -4.22684000           2.68313000           0.33307000         
H                    -7.09118000          -2.62224000           1.32131000         
H                    -7.95356000          -1.07423000           0.96043000         
H                    -7.51820000          -2.21501000          -0.38288000         
H                    -4.15008000           0.86830000           2.02981000         
H                    -5.90686000           1.18890000           2.43003000         
H                    -4.64281000           2.42641000           2.72370000         
