47
Number of gradient calls is 9
C                     2.92444300          -0.59613000           0.25865300         
C                     3.69744500           0.72095300           0.58437200         
C                     2.96620600           2.09819700           0.44266100         
H                     4.56851100           0.73802900          -0.08542600         
H                     4.09983300           0.64483800           1.60463400         
C                     1.93133600           2.00314500          -0.63632700         
H                     3.72732600           2.86512800           0.23446900         
H                     2.49126800           2.38341600           1.38830000         
C                     3.94739600          -1.75817000           0.30684500         
H                     4.81399100          -1.55223600          -0.33224400         
H                     3.48595600          -2.69037200          -0.03507700         
H                     4.31495900          -1.91369700           1.33025400         
C                     1.73937800          -0.96499300           1.19536400         
H                     2.55709400          -0.55263300          -0.77239500         
C                     0.30254100          -0.42693600           1.01656100         
H                     2.04863800          -0.71665300           2.22500000         
H                     1.64806800          -2.05765800           1.16365100         
C                    -0.60042300          -0.98677500           1.97706000         
C                    -1.94796700          -0.68717100           2.07839500         
C                     0.64798400           2.42155800          -0.58101700         
C                    -0.38734000           1.73328300          -1.40471300         
C                     0.12852900           3.45457400           0.39301900         
H                     0.93486400           4.04701200           0.83069800         
H                    -0.44957600           3.00275600           1.21203400         
H                    -0.55700900           4.12486600          -0.13574300         
O                    -1.51587800           2.24817200          -1.57671500         
C                    -0.12733600           0.28831600          -1.81908400         
C                    -0.62276400          -0.75296900          -0.74957100         
H                     0.91832900           0.10104700          -2.05685800         
H                    -0.73100600           0.07357700          -2.70475300         
S                     0.09425600          -2.51241400          -1.30903800         
C                    -1.28987800          -3.60288500          -0.64521900         
H                    -2.16129200          -2.95525400          -0.52318900         
H                    -1.00301900          -4.04866900           0.30857000         
H                    -1.48671300          -4.37993100          -1.38487400         
O                    -1.90637000          -0.72847500          -0.56024800         
C                    -2.55904500           0.22553100           1.20300100         
C                    -3.99612300           0.33209300           1.04331500         
C                    -4.55535100           1.20350800           0.18087400         
H                     2.22337900           1.37637000          -1.47258500         
H                    -4.61589100          -0.35674400           1.61472600         
H                    -3.94068900           1.85495200          -0.43481100         
H                    -5.63039700           1.25997100           0.04325700         
H                    -2.58106500          -1.30895200           2.70699600         
H                    -1.98751700           1.05381600           0.80555700         
H                     0.22234100           0.64832600           0.88324400         
H                    -0.23466100          -1.83102900           2.56172400         
