47
Number of gradient calls is 25
C                     3.49660000          -1.33980200           0.69819700         
C                     3.16657500          -1.26139100          -0.81830700         
C                     3.05567300           0.15693500          -1.46196600         
H                     2.22952400          -1.80141400          -1.00804300         
H                     3.95349600          -1.81845300          -1.34476900         
C                     1.64764400           0.67688300          -1.39852000         
H                     3.34365100           0.06276400          -2.52079100         
H                     3.77237400           0.84869100          -1.00844400         
C                     4.94698600          -0.89960700           0.98568400         
H                     5.19986600          -1.04587000           2.04266300         
H                     5.09668600           0.16301900           0.75621300         
H                     5.66045400          -1.47634300           0.38530500         
C                     2.52301900          -0.58325100           1.64512300         
H                     3.42315700          -2.40955000           0.95549100         
C                     1.06105200          -0.92591700           1.49806100         
H                     2.65703700           0.50036900           1.52347400         
H                     2.84842500          -0.81267800           2.67380800         
C                     0.08103800          -0.00574800           1.51610800         
C                    -1.36126900          -0.28029800           1.33531200         
C                     1.18484900           1.83572600          -0.87746500         
C                    -0.27344500           2.00635300          -0.65671800         
C                     2.04993400           2.94764400          -0.33409600         
H                     1.71149900           3.91621700          -0.71764300         
H                     3.10033900           2.81815100          -0.60286500         
H                     1.97363300           3.01214200           0.75860300         
O                    -0.67958300           2.95073800           0.06583700         
C                    -1.31234500           1.07886000          -1.28308200         
C                    -1.91924100          -0.13718000          -0.49736600         
H                    -0.96466200           0.70727500          -2.25109400         
H                    -2.17083300           1.72481000          -1.48776000         
S                    -1.21355100          -1.77794800          -1.25960900         
C                    -2.56050100          -2.99839700          -0.76852800         
H                    -2.41066800          -3.35692500           0.25151000         
H                    -2.49186200          -3.82979200          -1.47174600         
H                    -3.51670100          -2.48552600          -0.86506800         
O                    -3.28579400          -0.16314300          -0.62629200         
C                    -2.36977000           0.64782700           1.79589900         
C                    -3.67860500           0.20369600           1.72650300         
C                    -4.29078900           0.68889300           0.52367000         
H                     0.91876800          -0.04627200          -1.75712700         
H                    -3.88322900          -0.83979000           1.96483400         
H                    -4.13721600           1.73352900           0.25666500         
H                    -5.23722800           0.27994300           0.18262800         
H                    -1.62321400          -1.32902200           1.49190200         
H                    -2.15801700           1.70509500           1.62631200         
H                     0.81156900          -1.97878000           1.36311000         
H                     0.34855600           1.03746400           1.66915900         
