47
Number of gradient calls is 14
C                    -3.41551500          -0.75949300           0.86027300         
C                    -3.62429800           0.68615200           0.31354200         
C                    -2.74621600           1.77676700           0.99854400         
H                    -4.68033800           0.96273900           0.44124900         
H                    -3.43010300           0.72418700          -0.76546600         
C                    -1.28297100           1.70298300           0.62371800         
H                    -2.84561800           1.67895900           2.08765500         
H                    -3.15510000           2.75995100           0.73447200         
C                    -4.52162900          -1.13751200           1.86381500         
H                    -5.50027900          -1.18386300           1.36823100         
H                    -4.58936900          -0.39555800           2.66885100         
H                    -4.32710300          -2.11339400           2.32367300         
C                    -3.33154200          -1.81739500          -0.29491400         
H                    -2.45038900          -0.79943500           1.38343500         
C                    -2.04178400          -1.64482700          -1.03263900         
H                    -4.19923300          -1.68024800          -0.95861200         
H                    -3.39951100          -2.82630800           0.13025300         
C                    -0.97555300          -2.47993400          -1.00639200         
C                     0.31635600          -1.98870300          -1.40480700         
C                    -0.71817300           2.23738100          -0.48707600         
C                     0.71135500           1.98449600          -0.81675700         
C                    -1.47187200           3.01757400          -1.54206200         
H                    -2.49124300           3.25490600          -1.23095300         
H                    -1.51777100           2.45279800          -2.48061100         
H                    -0.95327400           3.95369600          -1.77812700         
O                     1.09970500           2.12028500          -2.00409800         
C                     1.72911200           1.56709400           0.23946700         
C                     1.84398800           0.02546200           0.41008000         
H                     1.46019400           1.96556200           1.22277400         
H                     2.69044200           1.99141600          -0.05748300         
S                     3.07551100          -0.43850300           1.88649100         
C                     4.58985900           0.66079200           1.62132700         
H                     4.32951700           1.71804800           1.69677600         
H                     5.06394400           0.45479100           0.65935400         
H                     5.28407900           0.40415000           2.42432500         
O                     0.75288800          -0.64263200           0.48104700         
C                     1.52995700          -2.65437100          -1.28165800         
C                     2.73893300          -1.94483300          -1.23013900         
C                     2.81102600          -0.53556500          -1.21185500         
H                    -0.65664000           1.09883200           1.27349500         
H                     3.63201800          -2.50623300          -0.96563600         
H                     3.80097400          -0.09344500          -1.13683800         
H                     2.15104700           0.03879100          -1.86017300         
H                     0.31459300          -1.00047500          -1.85277600         
H                     1.53479700          -3.71030600          -1.02276200         
H                    -1.89916400          -0.67444800          -1.50804400         
H                    -1.04159600          -3.45671100          -0.53131500         
