47
Number of gradient calls is 38
C                    -2.74787400          -1.21623000           0.54312600         
C                    -3.22505400          -0.81185700          -0.88290900         
C                    -3.20786800           0.72161900          -1.13264200         
H                    -4.23959800          -1.19840900          -1.05284000         
H                    -2.58883400          -1.27800200          -1.64576500         
C                    -1.78508400           1.21077200          -1.13744700         
H                    -3.81337900           1.23827600          -0.37897000         
H                    -3.68232800           0.92109700          -2.10682100         
C                    -3.95652400          -1.46113800           1.46895500         
H                    -4.63191800          -0.59703500           1.46229700         
H                    -3.64056300          -1.62890100           2.50546600         
H                    -4.53399900          -2.33732900           1.14415200         
C                    -1.81951100          -2.47664200           0.55104600         
H                    -2.15803900          -0.39195100           0.95245800         
C                    -0.39074800          -2.28641000           0.07770500         
H                    -2.28987800          -3.25548100          -0.06985600         
H                    -1.79536400          -2.86459700           1.57584900         
C                    -0.02076100          -2.32692100          -1.28218800         
C                     1.22382800          -1.87631800          -1.69236200         
C                    -1.23588900           2.28146000          -0.52373300         
C                     0.24491300           2.44906400          -0.50627300         
C                    -2.00750900           3.35899200           0.19923300         
H                    -1.70922000           3.41357900           1.25304100         
H                    -3.08677000           3.19889700           0.14770100         
H                    -1.78030200           4.33984900          -0.23299500         
O                     0.75286200           3.52381300          -0.12161800         
C                     1.16073600           1.28509100          -0.90420900         
C                     1.18894600           0.13698600           0.13195700         
H                     2.16745500           1.69181300          -1.01666000         
H                     0.84887800           0.86686900          -1.86635800         
S                     2.40046500           0.61694400           1.57610200         
C                     1.58396600          -0.30109300           3.00516100         
H                     2.06957300          -1.26325600           3.17850400         
H                     0.53284400          -0.43955300           2.74667800         
H                     1.68024200           0.33103500           3.88878300         
O                     0.05018100          -0.37711000           0.52259600         
C                     2.20556800          -1.34459400          -0.80262300         
C                     3.46819800          -0.85176200          -1.38444300         
C                     4.64313200          -0.76876200          -0.73969800         
H                    -1.11884300           0.53421100          -1.66290300         
H                     3.41136700          -0.52671800          -2.42443800         
H                     4.74996800          -1.06977300           0.29717300         
H                     5.53184300          -0.38222100          -1.22853900         
H                     1.40213600          -1.76956800          -2.76186000         
H                     2.31492000          -1.84750300           0.15698700         
H                     0.37230400          -2.52321900           0.81205000         
H                    -0.77906400          -2.54039000          -2.03053200         
