47
Number of gradient calls is 11
C                    -2.17286100          -2.20283100          -0.10951300         
C                    -2.11054500          -1.68067900           1.36152400         
C                    -2.09722200          -0.14893200           1.67721100         
H                    -1.19792500          -2.10986800           1.79777100         
H                    -2.94852000          -2.12457600           1.92190300         
C                    -1.03028600           0.65218500           0.92256800         
H                    -1.97087500          -0.04310300           2.76306200         
H                    -3.08176000           0.27177600           1.44953600         
C                    -1.76909300          -3.69372900          -0.12528100         
H                    -0.76002700          -3.83103000           0.27928000         
H                    -1.78167000          -4.09745500          -1.14438400         
H                    -2.45989400          -4.29330700           0.48239500         
C                    -3.55696100          -2.05352000          -0.85787200         
H                    -1.43548000          -1.64721000          -0.70489600         
C                    -3.96417500          -0.61450800          -0.94952500         
H                    -4.31303700          -2.64923700          -0.32954700         
H                    -3.42935200          -2.49519900          -1.85579900         
C                    -3.38100600           0.29697700          -1.77704100         
C                    -3.14097000           1.61226200          -1.24140500         
C                     0.36390500           0.57175700           1.28165600         
C                     1.22712100           1.12071600           0.29736600         
C                     0.83375500           0.18282600           2.66142000         
H                     1.86227500          -0.18659700           2.64796000         
H                     0.21234600          -0.61218000           3.08738400         
H                     0.79181000           1.02743000           3.37060300         
O                     0.76479400           1.55364400          -0.82512100         
C                     2.73811900           1.31410000           0.55700300         
C                     3.51679700           0.03521800           0.33756400         
H                     2.92693300           1.64283300           1.58420900         
H                     3.07711100           2.08400700          -0.13848800         
S                     4.19764400          -0.12305100          -1.38869400         
C                     5.00497300          -1.82256900          -1.24379900         
H                     4.84074600          -2.16170800          -0.21841600         
H                     6.06936700          -1.72143000          -1.45344300         
H                     4.53099900          -2.49675800          -1.95652600         
O                     3.68011200          -0.84055700           1.19190300         
C                    -2.03161200           2.39202600          -1.48751600         
C                    -1.29595100           2.96260300          -0.40155000         
C                    -1.48042500           2.47032300           0.93453400         
H                    -1.15537600           0.53639200          -0.15144500         
H                    -0.46701500           3.62350500          -0.62034000         
H                    -2.51280000           2.33050600           1.26038400         
H                    -0.88391800           2.95329700           1.70671700         
H                    -3.69879400           1.82374800          -0.32925300         
H                    -1.52636900           2.34016600          -2.44972700         
H                    -4.54125700          -0.23248100          -0.10760400         
H                    -2.79044300          -0.03273900          -2.63054600         
