47
Number of gradient calls is 17
C                    -3.11068200          -1.97519200           0.59796100         
C                    -3.42210800          -0.49370500           1.02851800         
C                    -2.23928900           0.33747500           1.62237800         
H                    -4.21601800          -0.51614800           1.78654500         
H                    -3.84633200           0.04722200           0.17202100         
C                    -1.08353600           0.45808900           0.64937300         
H                    -1.87680000          -0.16747500           2.53231700         
H                    -2.60872400           1.31813400           1.95345400         
C                    -4.10164200          -2.95008300           1.26896000         
H                    -4.06756300          -2.85513900           2.36073300         
H                    -3.87205800          -3.99115400           1.01320600         
H                    -5.13068200          -2.74354900           0.94665700         
C                    -3.12220300          -2.22377400          -0.96730900         
H                    -2.10054600          -2.23233200           0.95243800         
C                    -2.00599400          -1.45185500          -1.61996100         
H                    -4.10075000          -1.91402500          -1.36083200         
H                    -3.02587500          -3.30434100          -1.13349700         
C                    -2.17892600          -0.20357400          -2.09061100         
C                    -1.20279300           0.91440100          -1.94345100         
C                     0.27715500           0.81337000           0.92029600         
C                     1.07759400           0.59668100          -0.20819900         
C                     0.72424400           1.53253300           2.16640300         
H                     0.52810200           2.61377800           2.10360700         
H                     1.79052600           1.38717800           2.35774900         
H                     0.18063000           1.16250700           3.04404700         
O                     0.55322500           0.05936800          -1.30078800         
C                     2.53372200           1.06158900          -0.31548800         
C                     3.48587600           0.07902200           0.34053900         
H                     2.68218600           2.03001400           0.17499000         
H                     2.76773400           1.15492100          -1.37797300         
S                     4.21338900          -1.15183900          -0.85086100         
C                     5.24292900          -2.17369800           0.35638300         
H                     6.28656300          -2.13056400           0.04656900         
H                     4.87632800          -3.19962600           0.34644200         
H                     5.11029000          -1.72250800           1.34237000         
O                     3.75056800           0.06852200           1.54487100         
C                    -1.57407800           1.73441600          -0.82740800         
C                    -0.95009900           3.05802300          -0.62664600         
C                    -1.54588400           4.10008000          -0.02450100         
H                    -1.09799000          -0.38675500          -0.01842300         
H                     0.06509000           3.17391200          -1.00499900         
H                    -2.56324300           4.03776100           0.35522300         
H                    -1.04219100           5.05276100           0.10328200         
H                    -0.57471300           1.27753500          -2.74745200         
H                    -2.63222600           1.70431000          -0.56992500         
H                    -0.99495600          -1.81796000          -1.45530000         
H                    -3.20707900           0.14506900          -2.22557000         
