47
Number of gradient calls is 11
C                    -4.06704400          -1.02699900          -0.30465200         
C                    -3.76346300          -1.19445700           1.21738700         
C                    -2.30464100          -1.61160700           1.58199600         
H                    -4.41548400          -1.98423600           1.61578200         
H                    -4.03734400          -0.27947600           1.76150800         
C                    -1.20071900          -0.60868100           1.33426900         
H                    -2.09317100          -2.55618500           1.06637700         
H                    -2.30022800          -1.84974700           2.65665800         
C                    -5.40518500          -1.69883700          -0.67569600         
H                    -5.38489300          -2.77203800          -0.45185000         
H                    -5.62688500          -1.58043900          -1.74346600         
H                    -6.23458500          -1.25390000          -0.11012500         
C                    -4.08710400           0.46265800          -0.77747400         
H                    -3.26787400          -1.53090300          -0.86616200         
C                    -2.89366300           1.23655700          -0.31335600         
H                    -5.00848600           0.92241600          -0.38160500         
H                    -4.16687100           0.48348200          -1.87269700         
C                    -1.88471500           1.76652500          -1.06206100         
C                    -0.70835400           2.24003300          -0.40014600         
C                    -0.25906300          -0.63163000           0.34257400         
C                     0.79046500           0.37364800           0.25539400         
C                    -0.31512000          -1.63980000          -0.79179200         
H                     0.62678700          -2.18767600          -0.90248600         
H                    -0.52782300          -1.14040500          -1.74711800         
H                    -1.10353100          -2.37579400          -0.63482900         
O                     1.13813400           1.08532300           1.36420900         
C                     1.88486700           0.29145400          -0.79129300         
C                     3.18076200          -0.25200400          -0.21821900         
H                     2.12131000           1.32295900          -1.10459700         
H                     1.57699300          -0.28238300          -1.66266400         
S                     3.60145300          -1.97410200          -0.82183200         
C                     5.20695700          -2.24750600           0.12931400         
H                     5.38754100          -1.33519600           0.70275700         
H                     6.01026400          -2.42383500          -0.58517200         
H                     5.07951300          -3.10283000           0.79191700         
O                     3.90284400           0.35886900           0.56837000         
C                     0.36672800           3.02128400          -0.88572200         
C                     1.48973700           3.21247800          -0.10737200         
C                     1.59887100           2.60946300           1.23462800         
H                    -1.09685100           0.16450100           2.09325400         
H                     2.36570500           3.71257300          -0.50885300         
H                     0.91396200           3.03240300           1.97379100         
H                     2.61703300           2.58964800           1.61804700         
H                    -0.77408100           2.16247200           0.67992800         
H                     0.36360500           3.36827800          -1.91804300         
H                    -2.82813200           1.37809800           0.76284500         
H                    -1.92344400           1.73484600          -2.15120000         
