47
Number of gradient calls is 22
C                     3.92023000          -1.96230600           0.14090700         
C                     2.43211700          -1.73136400          -0.25700400         
C                     1.58457200          -0.85466700           0.72458900         
H                     1.94946500          -2.71393500          -0.34447100         
H                     2.40315500          -1.29651800          -1.26477700         
C                     0.74698400           0.24016100           0.05807600         
H                     2.24328500          -0.42513600           1.49158200         
H                     0.90609600          -1.52025200           1.27649900         
C                     4.47924200          -3.24247700          -0.50850500         
H                     5.53574200          -3.38746400          -0.25257100         
H                     4.40418600          -3.18864300          -1.60251900         
H                     3.92665500          -4.12969700          -0.17769500         
C                     4.83748000          -0.73477000          -0.22685300         
H                     3.96207600          -2.08675300           1.23476300         
C                     4.15424500           0.51876800           0.22468500         
H                     4.97654400          -0.72522400          -1.31724900         
H                     5.82393100          -0.88090300           0.23170000         
C                     3.29147100           1.19784500          -0.56038200         
C                     2.12614800           1.89538500          -0.03308800         
C                    -0.48405200           0.70087700           0.65053300         
C                    -1.58578100           0.89992200          -0.31936500         
C                    -0.77566700           0.33163100           2.09714700         
H                    -1.53336300           0.97135700           2.55771000         
H                     0.13074000           0.42303000           2.70519400         
H                    -1.12282300          -0.70713600           2.18425800         
O                    -1.38409400           0.96726600          -1.55222200         
C                    -3.04379300           1.05270000           0.17381000         
C                    -3.91384700          -0.07026800          -0.35120100         
H                    -3.43878600           1.98145700          -0.24857900         
H                    -3.11355500           1.09011500           1.26140900         
S                    -3.67213300          -1.67633200           0.58647200         
C                    -4.82285800          -2.78599800          -0.41481400         
H                    -5.28090800          -2.15182200          -1.17735100         
H                    -5.57805400          -3.19686300           0.25414900         
H                    -4.23307900          -3.57900500          -0.87297000         
O                    -4.69793900           0.02812400          -1.28918600         
C                     1.38762000           2.85346600          -0.77050900         
C                     0.18707300           3.36587000          -0.29560300         
C                    -0.35379800           2.91961800           0.91950800         
H                     0.68557900           0.16211300          -1.02372400         
H                    -0.43234800           3.95325500          -0.96697300         
H                     0.29376200           2.67570700           1.75450100         
H                    -1.34714400           3.24705200           1.21627900         
H                     2.10133800           1.97735700           1.05325600         
H                     1.68084600           3.05941200          -1.79729600         
H                     4.15032100           0.70801700           1.29930800         
H                     3.31241700           1.03231200          -1.63829400         
