47
Number of gradient calls is 16
C                     2.92966000          -2.01215100          -0.66645000         
C                     3.45424700          -1.60032400           0.76266900         
C                     2.45271600          -1.39567700           1.96386400         
H                     4.06615900          -0.69010300           0.66975300         
H                     4.14661700          -2.39214000           1.08278900         
C                     1.53397100          -0.25534900           1.62929700         
H                     3.06740000          -1.20042800           2.85435600         
H                     1.90602000          -2.32613100           2.14684200         
C                     1.73113200          -2.98120200          -0.62127700         
H                     0.80782300          -2.47239000          -0.34526200         
H                     1.91500200          -3.79748700           0.08848900         
H                     1.57214100          -3.43113200          -1.60862500         
C                     2.73295700          -0.86537400          -1.72642200         
H                     3.76535400          -2.59105300          -1.09135800         
C                     1.95538100           0.36317100          -1.32910500         
H                     2.30172300          -1.30625800          -2.63457500         
H                     3.73435400          -0.50063400          -2.01004300         
C                     1.61906300           1.46410500          -2.19027200         
C                     0.87876000           2.51315700          -1.66289900         
C                     0.23110300          -0.33151900           1.27860800         
C                    -0.27396100           0.39985800           0.05353200         
C                    -0.68751300          -1.43631200           1.77655100         
H                    -1.60864400          -1.00227100           2.19044000         
H                    -0.21207800          -2.00350400           2.58105300         
H                    -0.99104900          -2.12812300           0.98274600         
O                     0.26277700          -0.13290900          -1.05225000         
C                    -1.70698300           0.87613700          -0.09128300         
C                    -2.75131100          -0.21679200          -0.30857400         
H                    -1.76964900           1.51052100          -0.98320100         
H                    -2.00404900           1.48469400           0.76754800         
S                    -4.44808800           0.32131400           0.29751500         
C                    -5.45718300          -1.16914600          -0.26879100         
H                    -6.19072100          -0.83830000          -1.00316600         
H                    -5.94651000          -1.60636600           0.60082500         
H                    -4.75169700          -1.87484900          -0.71380400         
O                    -2.56821600          -1.30327300          -0.84756700         
C                     0.62044500           2.74613200          -0.27972400         
C                     1.66067800           2.89263600           0.73545200         
C                     1.47889400           3.42746900           1.96147600         
H                     2.06733800           0.65843800           1.40125700         
H                     2.67224700           2.61813900           0.43489900         
H                     0.49852600           3.74176900           2.31019500         
H                     2.30507800           3.56666600           2.65028500         
H                     0.29374300           3.09941400          -2.37266000         
H                    -0.26909600           3.34122400          -0.07048300         
H                     2.18430100           0.65536900          -0.32273800         
H                     1.64025100           1.32046600          -3.26718800         
