56
Number of gradient calls is 35
C                     3.96799900           1.42731200          -0.40405600         
C                     4.34263800           2.40017700          -1.51760600         
C                     3.79533200          -0.01932700          -0.92309700         
O                     3.42376100          -0.26828500          -2.09801000         
O                     2.92909700           0.58161100           2.12467500         
O                     0.36523800           3.31334600          -0.00072100         
N                     2.65330700           1.79129800           0.17905600         
C                     2.21577500           1.27867800           1.35345400         
C                     0.72669100           1.46274400           1.68932700         
C                     0.10206100           2.82731200           1.33949900         
N                    -0.04318800           0.24998400           1.16899200         
N                     3.92860800          -0.98335300           0.03478400         
C                     3.34795500          -2.33325100          -0.15009700         
C                     3.97761800          -3.33607800           0.81187000         
C                     1.84090400          -2.14622500           0.10537100         
O                     1.34089600          -2.24982700           1.26226400         
N                     1.10742600          -1.70771800          -0.95382700         
O                    -0.45687700           1.07338100          -1.06663300         
O                    -2.31769500          -0.15970900           0.70678300         
C                    -0.32463300          -1.36164500          -0.81120100         
C                    -0.41127400           0.08609600          -0.32291800         
C                    -1.06392200          -1.54223200          -2.13570200         
H                     4.71194500           1.44502500           0.39972400         
H                     3.64054600           2.31427600          -2.35166700         
H                     5.34061300           2.16790100          -1.90022300         
H                     4.34532700           3.42821900          -1.14330500         
H                    -0.13119700           2.73834900          -0.63698500         
H                     2.03402800           2.44629800          -0.30512500         
H                     0.66426100           1.35088700           2.77668200         
H                     0.54510700           3.56782300           2.00910400         
H                    -0.97617800           2.79148400           1.53895500         
H                     0.41298400          -0.63242200           1.49381000         
H                    -1.09467100           0.23967700           1.48349100         
H                     4.03661100          -0.66951700           0.99883900         
H                     3.51881200          -2.62049200          -1.19054800         
H                     5.06186400          -3.35869100           0.67159100         
H                     3.58010200          -4.33924000           0.63028200         
H                     3.74796400          -3.07012700           1.84768800         
H                     1.59108200          -1.46564500          -1.81582400         
H                    -0.74284900          -2.01060400          -0.04081800         
H                    -2.12351100          -1.31289500          -2.00215900         
H                    -0.96759400          -2.57776600          -2.47331200         
H                    -0.66556400          -0.87248500          -2.90417400         
C                    -3.52473300           0.27241800           0.27359600         
C                    -4.62170800          -0.63169400           0.15971900         
C                    -3.72722400           1.62309200          -0.09678000         
C                    -5.86545500          -0.16968700          -0.31282100         
C                    -6.04583900           1.16130000          -0.67654600         
C                    -4.96591900           2.05579500          -0.56577500         
H                    -2.89677300           2.31655800          -0.01891600         
H                    -7.00778300           1.50803100          -1.03874800         
H                    -5.09693100           3.09674400          -0.84742700         
H                    -6.67559300          -0.88901800          -0.38000800         
C                    -4.46831600          -2.03621700           0.54838300         
O                    -5.36962900          -2.89597900           0.45397400         
H                    -3.48170600          -2.31155000           0.94965000         
