56
Number of gradient calls is 9
C                     1.89866000           2.63262800          -0.51662600         
C                     1.91382400           3.61929200          -1.69559900         
C                     2.18255100           1.20653800          -1.01516800         
O                     1.32975500           0.56409300          -1.67905700         
O                     1.01734000           0.91525600           1.54665900         
O                    -1.83722300           3.85329300           0.19557100         
N                     0.59232200           2.68494500           0.13956300         
C                     0.25171500           1.82203300           1.12858700         
C                    -1.15312500           1.99869100           1.73272400         
C                    -1.73041900           3.42278300           1.57695200         
N                    -2.12258900           0.95146700           1.22591600         
N                     3.41807300           0.71421700          -0.72684300         
C                     3.79692600          -0.68493600          -1.02481300         
C                     5.31100300          -0.81988600          -1.15571600         
C                     3.23252800          -1.56076200           0.11713300         
O                     3.94830000          -1.96938400           1.06214800         
N                     1.89001300          -1.76557300           0.04632000         
O                    -1.10128900          -1.71612100           2.02933400         
O                    -0.70877100          -1.72828000          -0.23906200         
C                     1.13996300          -2.24101200           1.21033300         
C                    -0.31631800          -1.85502000           1.08749400         
C                     1.25799800          -3.77245600           1.40432100         
H                     2.67288600           2.91115600           0.21227300         
H                     1.17778200           3.31437900          -2.44576900         
H                     2.90134500           3.63699200          -2.16612100         
H                     1.67646700           4.63166200          -1.35281700         
H                    -2.52989400           3.24769900          -0.24536000         
H                    -0.13006600           3.34273300          -0.18030100         
H                    -1.04245200           1.79119900           2.80202700         
H                    -1.06158900           4.12922500           2.07492700         
H                    -2.70704600           3.47023200           2.07610500         
H                    -3.22500500           1.52596200           0.96418800         
H                    -2.02338600           0.06063500           1.72934500         
H                     3.99147200           1.20074200          -0.05037300         
H                     3.29791300          -0.94431100          -1.96341600         
H                     5.57429600          -1.84087100          -1.44694500         
H                     5.79913600          -0.62422500          -0.19588000         
H                     5.69285500          -0.12906900          -1.91333900         
H                     1.36525000          -1.33078300          -0.70889700         
H                     1.52505700          -1.73932700           2.10338000         
H                     2.31266000          -4.01545500           1.55132700         
H                     0.88807100          -4.30148800           0.52014000         
H                     0.69076600          -4.09371500           2.28373800         
C                    -2.09109400          -1.73821400          -0.61141700         
C                    -2.84516500          -0.55947400          -0.66474300         
C                    -2.61830100          -2.97533000          -0.97971800         
C                    -4.17208600          -0.66195400          -1.11419900         
C                    -4.71906800          -1.89206200          -1.48730500         
C                    -3.94220500          -3.05377300          -1.41995500         
H                    -1.98695700          -3.85476100          -0.92839500         
H                    -5.74568800          -1.94222300          -1.83409600         
H                    -4.35711300          -4.01291300          -1.71074200         
H                    -4.74102100           0.25795600          -1.16565300         
C                    -2.31253500           0.81434300          -0.30733300         
O                    -3.34473800           1.82373400          -0.35857600         
H                    -1.39658100           1.06388300          -0.84988300         
