48
Number of gradient calls is 19
C                    -2.83570700           1.56801900          -0.23154500         
C                    -3.59410700           2.59666400           0.60361500         
C                    -2.85361400           0.16907700           0.41771300         
O                    -2.81690500           0.02224700           1.66812200         
O                    -0.95925800           0.56013800          -2.12736800         
O                     0.60686800           3.38915500           0.76127200         
N                    -1.40871600           1.94604800          -0.33816200         
C                    -0.58119300           1.38232800          -1.24760500         
C                     0.90683300           1.75501900          -1.16281700         
C                     1.25109800           3.11147300          -0.50768700         
N                     1.73425000           0.58339700          -0.62178200         
N                    -2.76691800          -0.87003400          -0.45575000         
C                    -2.40709400          -2.23072900          -0.00526300         
C                    -2.97137400          -3.28995300          -0.94759400         
C                    -0.86393100          -2.28931000           0.07340400         
O                    -0.17499500          -2.97385900          -0.71735200         
N                    -0.31210500          -1.46835300           1.02394600         
O                     1.39302500           1.04825100           1.67343100         
S                     4.23110600          -0.30986700           0.10268600         
C                     1.14578500          -1.31648300           1.18445800         
C                     1.50465100           0.13451200           0.84400000         
C                     1.59182300          -1.64300500           2.61560400         
H                    -3.24367300           1.50928800          -1.24625800         
H                    -4.66187400           2.35898200           0.61529800         
H                    -3.46662600           3.59959400           0.18544600         
H                    -3.23873000           2.58158800           1.63778800         
H                     0.98351600           2.77267400           1.43646500         
H                    -0.99779900           2.60297900           0.33481300         
H                     1.24326100           1.83006700          -2.20203900         
H                     0.90352400           3.89676400          -1.18308900         
H                     2.34082700           3.19958100          -0.41693200         
H                    -2.56013500          -0.64235500          -1.42569000         
H                    -2.82121100          -2.34231700           1.00176100         
H                    -4.06013200          -3.20187200          -0.99996400         
H                    -2.71272000          -4.29072300          -0.59107900         
H                    -2.54945500          -3.18414500          -1.95151600         
H                    -0.93186200          -0.97464300           1.66398900         
H                     1.60244400          -2.01140700           0.48495400         
H                     2.67693900          -1.54062600           2.69539300         
H                     1.30830200          -2.67226900           2.85256300         
H                     1.12333100          -0.96633300           3.33620400         
C                     1.95261700          -0.56196700          -1.61064400         
H                     2.79393700           0.88393700          -0.46849300         
C                     3.30372600          -1.25768100          -1.26837000         
H                     1.98245700          -0.09501200          -2.59658600         
H                     1.10684200          -1.24753700          -1.58197200         
H                     3.93902800          -1.29849800          -2.15513500         
H                     3.12958300          -2.28248000          -0.93511100         
