20

H                    -4.21803000           1.42057000          -0.88700000         
C                    -5.20307000           0.98976000          -0.65568000         
C                    -5.00249000          -0.42847000          -0.08231000         
C                    -5.92413000           1.98174000           0.27240000         
C                    -6.30943000          -1.18886000           0.19770000         
C                    -5.18738000           2.21985000           1.59028000         
C                    -7.12420000          -1.45202000          -1.06842000         
H                    -5.74265000           0.93619000          -1.62076000         
H                    -4.40927000          -0.37072000           0.85485000         
H                    -4.40004000          -1.01972000          -0.80486000         
H                    -6.96058000           1.63627000           0.47994000         
H                    -5.99204000           2.95479000          -0.26061000         
H                    -6.04251000          -2.17389000           0.64184000         
H                    -6.92679000          -0.63966000           0.93775000         
H                    -5.14676000           1.29391000           2.20121000         
H                    -4.15200000           2.57780000           1.39927000         
H                    -5.72487000           2.99077000           2.18085000         
H                    -7.46212000          -0.50457000          -1.53493000         
H                    -8.02601000          -2.04505000          -0.81196000         
H                    -6.51760000          -2.02598000          -1.80234000         
