12

C                    -5.66299000           1.26591000           1.63776000         
C                    -5.22169000           0.66166000           2.75078000         
C                    -5.49844000           2.73185000           1.31650000         
C                    -4.78030000           3.55754000           2.38610000         
H                    -6.18068000           0.65669000           0.90231000         
H                    -4.69356000           1.19254000           3.53308000         
H                    -5.39112000          -0.40071000           2.88841000         
H                    -6.50826000           3.16502000           1.16317000         
H                    -4.93116000           2.81981000           0.36347000         
H                    -5.33835000           3.51616000           3.34283000         
H                    -3.74446000           3.17903000           2.53736000         
H                    -4.72129000           4.61684000           2.05986000         
