12
33.48916850547721
C        1.147337       1.423378      -2.272413
C        0.584394       0.564143      -1.145816
C        1.377438      -0.684891      -0.922913
O        0.466369       2.505824      -2.615367
O        0.791639       3.295587      -1.230236
O        2.424229      -0.950657      -1.443299
H        0.883887       4.200997      -1.539563
H        2.344283       1.808115      -1.751632
H        1.486147       0.848278      -3.141716
H        0.902511      -1.382443      -0.205042
H       -0.462307       0.312679      -1.337198
H        0.613585       1.145309      -0.221000
12
33.40384928027561
C        1.147428       1.423117      -2.272480
C        0.584322       0.563895      -1.145925
C        1.377296      -0.685154      -0.922901
O        0.466336       2.505575      -2.615443
O        0.791302       3.295422      -1.230721
O        2.424143      -0.950966      -1.443154
H        0.883350       4.200931      -1.539899
H        2.343787       1.808126      -1.752092
H        1.486230       0.847941      -3.141707
H        0.902330      -1.382614      -0.204974
H       -0.462382       0.312506      -1.337450
H        0.613454       1.145028      -0.221096
