12
31.700674462121242
C        0.836790       1.326935      -2.437338
C        0.441052       0.511079      -1.218265
C        1.391252      -0.609030      -0.928799
O        0.127715       2.151680      -2.940071
O        1.180185       3.079359      -1.084437
O        2.488345      -0.726265      -1.402955
H        1.307918       3.977689      -1.394881
H        2.228694       2.276866      -1.455775
H        1.464306       0.750749      -3.157390
H        0.998653      -1.348614      -0.207370
H       -0.574686       0.137426      -1.334916
H        0.445151       1.176099      -0.347260
12
31.605602873734824
C        0.836850       1.326841      -2.437414
C        0.441077       0.511047      -1.218321
C        1.391583      -0.608685      -0.928400
O        0.127660       2.151389      -2.940395
O        1.180084       3.079700      -1.084843
O        2.488866      -0.725601      -1.402207
H        1.307682       3.978111      -1.395169
H        2.228006       2.277695      -1.456112
H        1.464577       0.750730      -3.157302
H        0.999094      -1.348205      -0.206877
H       -0.574520       0.137073      -1.335116
H        0.444784       1.176241      -0.347420
