12
0.0
C        1.299040       1.440082      -2.211073
C        0.622194       0.554413      -1.164259
C        1.376563      -0.712648      -0.907856
O        0.605349       2.638289      -2.439765
O        0.664068       3.460949      -1.274281
O        2.398858      -1.039237      -1.440819
H        0.752014       4.349105      -1.645148
H        2.334604       1.642332      -1.910946
H        1.298989       0.957295      -3.191018
H        0.893460      -1.360693      -0.149663
H       -0.394652       0.302591      -1.476906
H        0.538411       1.107221      -0.224064
12
-9.250117000192404e-05
C        1.299066       1.440099      -2.211061
C        0.622214       0.554437      -1.164245
C        1.376532      -0.712670      -0.907888
O        0.605364       2.638277      -2.439768
O        0.664066       3.460964      -1.274314
O        2.398835      -1.039232      -1.440838
H        0.751930       4.349000      -1.645157
H        2.334638       1.642360      -1.910944
H        1.299009       0.957300      -3.191002
H        0.893415      -1.360721      -0.149667
H       -0.394632       0.302656      -1.476876
H        0.538463       1.107230      -0.224039
