  48
 
 Si         3.3424492400        0.9578489400       -0.1456189600
 C          4.0806185200        2.5511711100       -0.9013467400
 H          5.1636849000        2.4975111100       -0.9353431400
 H          3.8147072200        3.4258659100       -0.3163542400
 H          3.7296515800        2.7212683400       -1.9147343100
 C          4.0386179200        0.7996144300        1.6162850400
 H          5.1220078300        0.8592699300        1.5993807000
 H          3.7602110000       -0.1382460800        2.0813922100
 H          3.6748682600        1.6083573100        2.2443040800
 C          3.6831947800       -0.4529757500       -1.3800452700
 O          2.1111018300       -1.3039794700        0.9188101000
 H          4.6586544100       -0.3348774000       -1.8412646500
 H          2.9412543100       -0.4569350600       -2.1745709000
 H          3.6562633200       -1.4232045100       -0.8980294800
 C          0.9116079900       -1.3107880400        0.7034253900
 C         -0.0371077000       -2.4337810700        1.0980983000
 H          0.0536703000       -3.2393966500        0.3672171700
 H          0.2230104100       -2.8404040700        2.0746869000
 C          0.1275110000       -0.2889598000        0.0745705100
 C          0.5321446900        0.9731697600       -0.2190367900
 O          1.7425329000        1.4474217900       -0.1109120400
 C         -3.2197602600        0.7431589400        0.8264544600
 C         -1.3120865400       -0.7466234400       -0.0679983600
 C         -1.4288257600       -1.7932972900        1.0603651300
 C         -1.5101358000       -1.3942032100       -1.4545311400
 O         -0.3050373800        1.9390142800       -0.6452006200
 C         -2.5862745900       -2.7796417500        0.9113023500
 C         -2.7910726100       -2.2162958600       -1.5099803700
 H         -0.6566674700       -2.0424531500       -1.6636006500
 H         -1.5237671700       -0.6160846900       -2.2199159200
 C         -2.7119532000       -3.3509996000       -0.4963974200
 H         -3.5182041900       -2.2660538600        1.1562629200
 H         -2.4556157400       -3.5885911600        1.6337683200
 H         -2.9261348000       -2.6185512100       -2.5160011800
 H         -3.6470122200       -1.5773117600       -1.2810000600
 H         -3.6062782800       -3.9744169400       -0.5551568700
 H         -1.8528641000       -3.9838591900       -0.7276021600
 C         -3.6601158200        2.1705693800        0.6945303200
 C         -2.1581898900        0.4703411200        0.0830106600
 H         -3.7516701200        0.0511004700        1.4544703100
 C         -1.7072732500        1.6906652200       -0.6850909500
 C         -2.4797881400        2.8437452200       -0.0229732300
 H         -2.7948650400        3.5953557900       -0.7426392300
 H         -1.8156000900        3.3176731500        0.6997759400
 H         -3.8726770900        2.6237690100        1.6633875400
 H         -4.5721376800        2.2295347300        0.0941613900
 H         -1.9767943800        1.5941256300       -1.7478034400
 H         -1.5667612700       -1.2458272300        2.0000633700
