12
24.648928097281896
C        2.647384       0.251813      -2.785315
C        1.670589       0.669062      -1.985998
C        0.926279      -0.257058      -1.139780
O       -0.913375       2.702748      -0.202325
O        0.078499       3.344528      -0.996049
O        0.024562       0.055201      -0.397631
H       -0.174652       4.271989      -0.912864
H        3.199490       0.929198      -3.414197
H        2.925899      -0.789144      -2.838150
H        1.248240      -1.311983      -1.218100
H       -0.626556       1.763152      -0.220045
H        1.382660       1.710093      -1.925345
12
24.648825047675928
C        2.647362       0.251892      -2.785307
C        1.670554       0.669109      -1.985978
C        0.926278      -0.257051      -1.139778
O       -0.913412       2.702715      -0.202287
O        0.078532       3.344453      -0.996072
O        0.024562       0.055023      -0.397637
H       -0.174546       4.271883      -0.912959
H        3.199478       0.929315      -3.414138
H        2.925925      -0.789117      -2.838173
H        1.248302      -1.311934      -1.218156
H       -0.626623       1.763157      -0.220019
H        1.382609       1.710155      -1.925297
