12
112.79313462739992
C        2.023026       0.994763      -2.426567
C        1.177047       0.801892      -1.347920
C        1.095742      -0.591505      -0.817811
O       -0.319144       2.703980      -1.576007
O        0.826265       3.405506      -1.255000
O        0.223596      -1.018242      -0.108274
H        0.474727       4.280081      -1.040030
H        2.764510       1.760044      -2.502408
H        2.064474       0.130987      -3.080652
H        1.941952      -1.222432      -1.106956
H       -0.204021       1.185689      -1.032166
H        1.241476       1.728776      -0.755095
12
112.42566102584351
C        2.023019       0.995518      -2.426604
C        1.177585       0.801656      -1.347548
C        1.095052      -0.591589      -0.817112
O       -0.318862       2.701508      -1.576668
O        0.825434       3.404048      -1.253171
O        0.221635      -1.018576      -0.109746
H        0.472768       4.277671      -1.036779
H        2.764034       1.761289      -2.502321
H        2.064569       0.132734      -3.082088
H        1.942050      -1.222767      -1.104950
H       -0.201821       1.185910      -1.036265
H        1.241845       1.727925      -0.753724
12
111.48329567410292
C        2.023133       0.997338      -2.426457
C        1.179037       0.801083      -1.346515
C        1.093277      -0.591786      -0.815355
O       -0.318091       2.695313      -1.578501
O        0.823341       3.400375      -1.248342
O        0.216464      -1.019640      -0.113704
H        0.467777       4.271586      -1.028443
H        2.763073       1.764231      -2.501749
H        2.064758       0.137225      -3.085685
H        1.942361      -1.223615      -1.099846
H       -0.196338       1.186727      -1.046831
H        1.242853       1.725722      -0.750139
