12
28.657236232691503
C        2.653526       0.559639      -2.690358
C        1.634271       0.776270      -1.852294
C        0.974484      -0.267466      -1.106242
O       -0.851265       2.464268      -0.481638
O        0.219322       3.247898      -0.974437
O        0.002695      -0.068363      -0.412170
H       -0.100319       4.138674      -0.783569
H        3.284920       1.337268      -3.074933
H        2.912322      -0.453883      -2.959999
H        1.426857      -1.268333      -1.183299
H       -0.535510       1.506681      -0.447924
H        1.405610       1.799573      -1.609163
12
28.341624745469744
C        2.666993       0.563746      -2.693828
C        1.636759       0.780704      -1.846439
C        0.968414      -0.270311      -1.100719
O       -0.859390       2.465202      -0.485765
O        0.216041       3.250100      -0.972514
O       -0.006669      -0.108554      -0.395043
H       -0.102573       4.139862      -0.781835
H        3.293099       1.344867      -3.081248
H        2.931710      -0.448162      -2.968714
H        1.430680      -1.265773      -1.189562
H       -0.541675       1.515794      -0.449409
H        1.407017       1.805654      -1.598944
