52

C                    -4.50029000          -0.88512000           0.27356000         
C                    -5.35363000          -2.10969000          -0.05861000         
C                    -3.60364000          -0.43699000          -0.89798000         
C                    -4.41295000           0.14882000          -2.05298000         
H                    -3.86729000          -1.18962000           1.11955000         
H                    -5.13961000          -0.04340000           0.61331000         
H                    -3.01607000          -1.30945000          -1.25801000         
H                    -5.92579000          -2.41380000           0.84485000         
H                    -6.07544000          -1.90123000          -0.87138000         
H                    -4.69815000          -2.95785000          -0.35311000         
H                    -5.11973000          -0.60097000          -2.46573000         
H                    -3.73634000           0.45772000          -2.87625000         
C                    -4.18704000           4.05560000          -0.18807000         
C                    -5.24106000           3.57744000           0.14826000         
Ga                   -2.21222000           0.92373000          -0.29043000         
H                    -3.25968000           4.47161000          -0.48329000         
H                    -4.98924000           1.03537000          -1.71131000         
H                    -6.16655000           3.15739000           0.44325000         
O                    -0.87780000           0.86370000          -1.44290000         
O                    -1.67910000           0.46810000           1.30850000         
Si                    1.47950000           2.57020000           0.57870000         
Si                    2.65470000           0.82920000          -1.90310000         
Si                   -0.27540000          -0.17650000          -2.54730000         
Si                    1.83200000          -0.02460000           2.59190000         
Si                    3.08210000          -1.67890000           0.13560000         
Si                    0.07730000          -2.68830000          -0.58700000         
Si                   -1.15050000          -0.95720000           1.92190000         
O                     2.14760000           2.03110000          -0.83710000         
O                     1.36010000           0.24580000          -2.79260000         
O                    -0.22790000           2.87690000           0.41590000         
O                     1.67790000           1.41560000           1.73960000         
O                     3.25740000          -0.40930000          -0.94830000         
O                    -0.25860000          -1.76920000          -1.95480000         
O                     2.82900000          -0.99320000           1.65270000         
O                     1.73070000          -2.54800000          -0.30020000         
O                    -0.74880000          -2.07090000           0.71560000         
O                     0.31870000          -0.71410000           2.75670000         
O                    -1.11330000          -0.16090000          -4.01310000         
O                     3.83580000           1.50490000          -2.88870000         
O                     4.41280000          -2.70190000           0.14640000         
O                    -0.35400000          -4.30320000          -0.78410000         
O                     1.96170000           4.12540000           1.00150000         
O                     2.54170000           0.27120000           4.08620000         
O                    -2.28620000          -1.64660000           2.96440000         
H                     2.15700000          -0.00390000           4.93160000         
H                    -0.49970000           3.79910000           0.58160000         
H                     2.86610000           4.46200000           1.07260000         
H                     3.99930000           1.23900000          -3.80560000         
H                    -1.08030000          -0.88350000          -4.65800000         
H                     0.15580000          -4.94120000          -1.30530000         
H                    -2.22980000          -2.56140000           3.28030000         
H                     5.24250000          -2.52450000           0.61300000         
