52

C                    -4.85366000          -0.40538000           0.13134000         
C                    -4.41534000          -1.85806000           0.31460000         
C                    -4.02399000           0.34099000          -0.93592000         
C                    -4.76515000           1.56606000          -1.52025000         
H                    -4.80497000           0.13449000           1.09913000         
H                    -5.91503000          -0.46172000          -0.19674000         
H                    -3.88827000          -0.35106000          -1.79646000         
H                    -5.03115000          -2.33750000           1.10488000         
H                    -4.55548000          -2.42193000          -0.63152000         
H                    -3.35907000          -1.93441000           0.59550000         
H                    -5.75983000           1.26049000          -1.91235000         
H                    -4.16579000           1.91840000          -2.38855000         
C                    -4.92437000           2.74795000          -0.59260000         
C                    -5.68148000           2.73442000           0.50718000         
Ga                   -2.17936000           0.96472000          -0.27874000         
H                    -4.40448000           3.66623000          -0.84925000         
H                    -5.74836000           3.62988000           1.11940000         
H                    -6.24444000           1.86243000           0.80724000         
O                    -0.87780000           0.86370000          -1.44290000         
O                    -1.67910000           0.46810000           1.30850000         
Si                    1.47950000           2.57020000           0.57870000         
Si                    2.65470000           0.82920000          -1.90310000         
Si                   -0.27540000          -0.17650000          -2.54730000         
Si                    1.83200000          -0.02460000           2.59190000         
Si                    3.08210000          -1.67890000           0.13560000         
Si                    0.07730000          -2.68830000          -0.58700000         
Si                   -1.15050000          -0.95720000           1.92190000         
O                     2.14760000           2.03110000          -0.83710000         
O                     1.36010000           0.24580000          -2.79260000         
O                    -0.22790000           2.87690000           0.41590000         
O                     1.67790000           1.41560000           1.73960000         
O                     3.25740000          -0.40930000          -0.94830000         
O                    -0.25860000          -1.76920000          -1.95480000         
O                     2.82900000          -0.99320000           1.65270000         
O                     1.73070000          -2.54800000          -0.30020000         
O                    -0.74880000          -2.07090000           0.71560000         
O                     0.31870000          -0.71410000           2.75670000         
O                    -1.11330000          -0.16090000          -4.01310000         
O                     3.83580000           1.50490000          -2.88870000         
O                     4.41280000          -2.70190000           0.14640000         
O                    -0.35400000          -4.30320000          -0.78410000         
O                     1.96170000           4.12540000           1.00150000         
O                     2.54170000           0.27120000           4.08620000         
O                    -2.28620000          -1.64660000           2.96440000         
H                     2.15700000          -0.00390000           4.93160000         
H                    -0.49970000           3.79910000           0.58160000         
H                     2.86610000           4.46200000           1.07260000         
H                     3.99930000           1.23900000          -3.80560000         
H                    -1.08030000          -0.88350000          -4.65800000         
H                     0.15580000          -4.94120000          -1.30530000         
H                    -2.22980000          -2.56140000           3.28030000         
H                     5.24250000          -2.52450000           0.61300000         
