52

C                    -6.76154000           0.42962000          -0.28101000         
C                    -3.39799000          -0.61537000          -0.86537000         
C                    -6.32070000           0.73352000          -1.50538000         
C                    -6.07678000           2.13713000          -2.00032000         
H                    -6.90722000          -0.61104000          -0.00809000         
H                    -6.98434000           1.18719000           0.45219000         
H                    -6.13380000          -0.08768000          -2.19579000         
H                    -4.23184000          -0.72086000          -0.14517000         
H                    -3.77145000          -0.42047000          -1.88811000         
H                    -2.83032000          -1.56736000          -0.87985000         
H                    -7.01115000           2.73644000          -1.94391000         
H                    -5.78423000           2.05223000          -3.07018000         
C                    -4.95058000           2.85594000          -1.29949000         
C                    -4.99253000           3.23546000          -0.01746000         
Ga                   -2.20089000           0.88426000          -0.29563000         
H                    -4.06028000           3.09740000          -1.87345000         
H                    -4.14459000           3.75678000           0.41601000         
H                    -5.85308000           3.05245000           0.60870000         
O                    -0.87780000           0.86370000          -1.44290000         
O                    -1.67910000           0.46810000           1.30850000         
Si                    1.47950000           2.57020000           0.57870000         
Si                    2.65470000           0.82920000          -1.90310000         
Si                   -0.27540000          -0.17650000          -2.54730000         
Si                    1.83200000          -0.02460000           2.59190000         
Si                    3.08210000          -1.67890000           0.13560000         
Si                    0.07730000          -2.68830000          -0.58700000         
Si                   -1.15050000          -0.95720000           1.92190000         
O                     2.14760000           2.03110000          -0.83710000         
O                     1.36010000           0.24580000          -2.79260000         
O                    -0.22790000           2.87690000           0.41590000         
O                     1.67790000           1.41560000           1.73960000         
O                     3.25740000          -0.40930000          -0.94830000         
O                    -0.25860000          -1.76920000          -1.95480000         
O                     2.82900000          -0.99320000           1.65270000         
O                     1.73070000          -2.54800000          -0.30020000         
O                    -0.74880000          -2.07090000           0.71560000         
O                     0.31870000          -0.71410000           2.75670000         
O                    -1.11330000          -0.16090000          -4.01310000         
O                     3.83580000           1.50490000          -2.88870000         
O                     4.41280000          -2.70190000           0.14640000         
O                    -0.35400000          -4.30320000          -0.78410000         
O                     1.96170000           4.12540000           1.00150000         
O                     2.54170000           0.27120000           4.08620000         
O                    -2.28620000          -1.64660000           2.96440000         
H                     2.15700000          -0.00390000           4.93160000         
H                    -0.49970000           3.79910000           0.58160000         
H                     2.86610000           4.46200000           1.07260000         
H                     3.99930000           1.23900000          -3.80560000         
H                    -1.08030000          -0.88350000          -4.65800000         
H                     0.15580000          -4.94120000          -1.30530000         
H                    -2.22980000          -2.56140000           3.28030000         
H                     5.24250000          -2.52450000           0.61300000         
