52

C                    -5.87630000          -1.31052000           0.21689000         
C                    -5.53981000          -2.72677000          -0.24937000         
C                    -4.63368000          -0.45161000           0.47664000         
C                    -3.78766000          -0.17030000          -0.77523000         
H                    -6.43637000          -1.39483000           1.17513000         
H                    -6.53541000          -0.81344000          -0.52535000         
H                    -4.01704000          -0.96592000           1.23781000         
H                    -6.47731000          -3.31101000          -0.35819000         
H                    -5.02705000          -2.71303000          -1.23227000         
H                    -4.89153000          -3.23504000           0.49710000         
H                    -4.39412000           0.37095000          -1.53167000         
H                    -3.39579000          -1.10880000          -1.21422000         
C                    -4.27399000           4.05462000          -0.39873000         
C                    -5.23928000           3.36495000          -0.18586000         
Ga                   -2.19742000           0.96413000          -0.27508000         
H                    -3.42354000           4.65621000          -0.58567000         
H                    -4.96702000           0.51965000           0.89970000         
H                    -6.08465000           2.75633000           0.00122000         
O                    -0.87780000           0.86370000          -1.44290000         
O                    -1.67910000           0.46810000           1.30850000         
Si                    1.47950000           2.57020000           0.57870000         
Si                    2.65470000           0.82920000          -1.90310000         
Si                   -0.27540000          -0.17650000          -2.54730000         
Si                    1.83200000          -0.02460000           2.59190000         
Si                    3.08210000          -1.67890000           0.13560000         
Si                    0.07730000          -2.68830000          -0.58700000         
Si                   -1.15050000          -0.95720000           1.92190000         
O                     2.14760000           2.03110000          -0.83710000         
O                     1.36010000           0.24580000          -2.79260000         
O                    -0.22790000           2.87690000           0.41590000         
O                     1.67790000           1.41560000           1.73960000         
O                     3.25740000          -0.40930000          -0.94830000         
O                    -0.25860000          -1.76920000          -1.95480000         
O                     2.82900000          -0.99320000           1.65270000         
O                     1.73070000          -2.54800000          -0.30020000         
O                    -0.74880000          -2.07090000           0.71560000         
O                     0.31870000          -0.71410000           2.75670000         
O                    -1.11330000          -0.16090000          -4.01310000         
O                     3.83580000           1.50490000          -2.88870000         
O                     4.41280000          -2.70190000           0.14640000         
O                    -0.35400000          -4.30320000          -0.78410000         
O                     1.96170000           4.12540000           1.00150000         
O                     2.54170000           0.27120000           4.08620000         
O                    -2.28620000          -1.64660000           2.96440000         
H                     2.15700000          -0.00390000           4.93160000         
H                    -0.49970000           3.79910000           0.58160000         
H                     2.86610000           4.46200000           1.07260000         
H                     3.99930000           1.23900000          -3.80560000         
H                    -1.08030000          -0.88350000          -4.65800000         
H                     0.15580000          -4.94120000          -1.30530000         
H                    -2.22980000          -2.56140000           3.28030000         
H                     5.24250000          -2.52450000           0.61300000         
