12

C                     1.80966000           1.22990000          -2.63776000         
C                    -0.02385000           0.77541000          -1.50182000         
C                     1.14503000           0.80244000          -0.56656000         
O                     0.42037000           1.50083000          -2.60082000         
O                     1.21285000           2.00637000           0.16170000         
O                     2.25098000           0.68514000          -1.40675000         
H                     1.28802000           2.76062000          -0.47942000         
H                     2.35573000           2.17883000          -2.82467000         
H                     2.01755000           0.50556000          -3.45422000         
H                     1.07834000          -0.04229000           0.15144000         
H                    -0.22786000          -0.26673000          -1.83912000         
H                    -0.93772000           1.20391000          -1.03781000         
