12

C                     2.25724000           1.75207000          -2.12127000         
C                     0.01995000           1.32118000          -1.74132000         
C                     0.43325000           0.20341000          -0.77928000         
O                     1.01312000           1.41699000          -2.73638000         
O                     2.27925000           1.47051000          -0.72562000         
O                     1.83436000           0.22640000          -0.55691000         
H                    -0.13870000           0.25759000           0.17146000         
H                     3.08341000           1.20393000          -2.62228000         
H                     2.43096000           2.84070000          -2.25560000         
H                     0.21026000          -0.76383000          -1.27796000         
H                    -0.97756000           1.11347000          -2.18254000         
H                    -0.05698000           2.29760000          -1.20840000         
