12

C                     2.05272000           2.02776000          -1.93393000         
C                     0.10453000           0.46840000          -1.10027000         
C                     1.45863000           0.65837000          -1.73796000         
O                    -0.24611000          -0.88879000          -1.03969000         
O                     1.20679000           3.03290000          -1.43729000         
O                     2.09909000          -0.31545000          -2.10694000         
H                     0.74929000           3.44523000          -2.21595000         
H                     3.02188000           2.08928000          -1.39622000         
H                     2.26690000           2.18520000          -3.01700000         
H                     0.24363000          -1.27572000          -0.26716000         
H                    -0.66066000           0.99971000          -1.70403000         
H                     0.09241000           0.91311000          -0.07937000         
