12

C                     1.56566000           0.53301000          -2.93974000         
C                     0.16508000           0.93575000          -1.13287000         
C                     1.17588000           1.45763000          -0.14631000         
O                     0.49278000           1.31240000          -2.45614000         
O                     1.44337000           2.77796000          -0.06921000         
O                     1.76401000           0.68152000           0.58927000         
H                     1.00076000           3.41736000          -0.64455000         
H                     2.51322000           0.79268000          -2.41951000         
H                     1.70828000           0.76782000          -4.01435000         
H                     1.35130000          -0.55700000          -2.87777000         
H                     0.02690000          -0.16667000          -1.03957000         
H                    -0.81814000           1.38755000          -0.88506000         
