12

C                     1.88739000           2.55116000          -1.43102000         
C                    -0.22194000          -0.29430000          -1.78103000         
C                     0.92167000          -0.93800000          -1.11792000         
O                    -0.14834000           0.05916000          -2.94737000         
O                     1.64173000           3.91769000          -1.59347000         
O                     1.96557000          -1.12911000          -1.72104000         
H                     0.73646000           3.98570000          -1.99437000         
H                     2.89759000           2.41510000          -0.99379000         
H                     1.86510000           2.03571000          -2.41564000         
H                     0.83778000          -1.24384000          -0.08058000         
H                    -1.13924000          -0.12731000          -1.22715000         
H                     1.14532000           2.10805000          -0.73242000         
