12

C                     1.41195000           1.99537000          -1.92303000         
C                    -0.38706000           0.88577000          -0.96350000         
C                     2.43786000          -1.37438000          -1.13853000         
O                     0.22083000           1.27850000          -2.17645000         
O                     1.12209000           3.31339000          -1.54403000         
O                     2.55448000          -1.60204000          -2.23782000         
H                     0.68312000           3.73721000          -2.32690000         
H                     2.04204000           1.50602000          -1.14579000         
H                     2.03668000           1.99972000          -2.84319000         
H                    -0.02298000          -0.11704000          -0.65962000         
H                    -1.48187000           0.82270000          -1.12792000         
H                    -0.24170000           1.61621000          -0.13434000         
