12

C                     1.28087000           1.43799000          -2.37675000         
C                     0.51503000           0.28115000          -1.78484000         
C                     0.81392000          -0.36363000          -0.64128000         
O                     0.42759000           2.54366000          -2.54031000         
O                     0.42567000           3.19412000          -1.39072000         
O                     1.86183000          -0.05479000           0.15855000         
H                     0.91859000           4.03473000          -1.57613000         
H                     2.19810000           1.72404000          -1.82076000         
H                     1.63745000           1.13104000          -3.38154000         
H                     0.17405000          -1.18600000          -0.33714000         
H                    -0.35466000          -0.05992000          -2.33968000         
H                     2.49078000           0.65759000          -0.00521000         
