12

C                     0.96508000           1.49316000          -1.98031000         
C                    -0.17117000           0.87725000          -1.16918000         
O                     0.58275000           2.74349000          -2.49818000         
O                     0.67613000           3.60871000          -1.50488000         
O                     3.19401000          -1.31236000          -1.69608000         
C                     2.56687000          -1.57779000          -0.79824000         
H                     1.22560000           4.34918000          -1.86738000         
H                     1.19801000           0.82185000          -2.83406000         
H                     1.89573000           1.56965000          -1.37152000         
H                    -0.40436000           1.51325000          -0.28957000         
H                    -1.07881000           0.78149000          -1.80149000         
H                     0.12118000          -0.13027000          -0.80963000         
