12

C                     1.94129000           1.49180000          -1.99343000         
C                     0.88942000           0.73525000          -1.18218000         
C                     1.27194000          -0.69355000          -0.90476000         
O                    -1.02293000           3.53089000          -2.45193000         
O                    -0.88003000           3.70439000          -1.32355000         
O                     2.32532000          -1.16638000          -1.30398000         
H                     1.60436000           2.53568000          -2.16227000         
H                     2.90675000           1.51788000          -1.44468000         
H                     2.09107000           1.00468000          -2.98054000         
H                     0.59301000          -1.31890000          -0.33472000         
H                    -0.07044000           0.74214000          -1.74110000         
H                     0.73944000           1.25612000          -0.21266000         
