12

C                     0.98084000           1.65486000          -2.22020000         
C                     0.56835000           0.78405000          -1.01583000         
C                     1.19365000          -0.58682000          -1.01299000         
O                     2.37145000           1.86302000          -2.26391000         
O                     0.29294000           2.88250000          -2.22197000         
O                     1.96020000          -0.94762000          -1.89157000         
H                     0.47460000           3.33224000          -1.35539000         
H                     2.59745000           2.55630000          -1.59078000         
H                     0.68857000           1.12038000          -3.14911000         
H                     0.94951000          -1.27308000          -0.20811000         
H                    -0.53506000           0.65474000          -1.03395000         
H                     0.84672000           1.29942000          -0.07197000         
