12

C                     1.15963000           1.88325000          -1.72268000         
C                     0.47890000           0.77542000          -0.90545000         
C                     1.14854000          -0.57067000          -1.01095000         
O                     1.07687000           1.59133000          -3.09536000         
O                     0.50146000           3.09575000          -1.47551000         
O                     2.15662000          -0.74197000          -1.67802000         
H                     1.07406000           3.81102000          -1.85787000         
H                     2.22161000           1.97746000          -1.38338000         
H                     1.94007000           1.18370000          -3.36534000         
H                     0.72703000          -1.40909000          -0.46657000         
H                    -0.57590000           0.67626000          -1.24114000         
H                     0.48031000           1.06753000           0.16646000         
