12

C                     1.19602000           0.78091000          -0.57137000         
C                     1.25215000           1.24013000          -2.75085000         
C                     0.24052000           1.04368000          -1.68453000         
O                     2.19153000          -0.01873000          -1.16719000         
O                     2.22665000           0.25995000          -2.48254000         
O                     1.78760000           1.96505000          -0.09798000         
H                     1.06298000           2.49830000           0.32168000         
H                     0.69868000           0.24443000           0.26747000         
H                     1.72791000           2.24498000          -2.67944000         
H                     0.79836000           1.11718000          -3.75670000         
H                    -0.30411000           0.09626000          -1.90014000         
H                    -0.48909000           1.86787000          -1.53422000         
