12

C                     1.55512000           1.65471000          -2.22293000         
C                     1.24465000           0.77740000          -1.05846000         
O                     0.60470000           2.67620000          -2.39539000         
O                     0.70876000           3.48110000          -1.35637000         
C                     1.89006000          -0.35562000          -0.98166000         
O                     2.44802000          -1.41165000          -0.94319000         
H                     0.83248000           4.38074000          -1.75047000         
H                     1.52482000           1.02423000          -3.13929000         
H                     2.58794000           2.04694000          -2.10050000         
H                     0.43751000           1.01129000          -0.36231000         
H                    -0.84625000          -0.81679000          -1.15583000         
H                    -0.59861000          -1.12854000          -0.56940000         
