12

C                     2.05408000           1.69477000          -3.43432000         
C                     0.15409000           1.00391000          -0.48400000         
C                     1.01788000          -0.22144000          -0.50746000         
O                     1.25906000           2.51199000          -3.86672000         
O                     0.94275000           2.16188000          -0.53304000         
O                     2.23435000          -0.13751000          -0.56711000         
H                     0.33301000           2.90460000          -0.78116000         
H                     2.84083000           2.00935000          -2.75733000         
H                     1.96739000           0.65144000          -3.71624000         
H                     0.55210000          -1.20085000          -0.47312000         
H                    -0.52206000           0.95906000          -1.36721000         
H                    -0.44428000           1.00279000           0.45190000         
