12

C                     1.81681000           2.47773000          -2.66083000         
C                     0.04419000           0.58605000          -0.64663000         
C                     1.06552000          -0.51394000          -0.71160000         
O                     0.57182000           1.95884000          -2.26844000         
O                     0.60512000           1.84285000          -0.94960000         
O                     2.22698000          -0.28650000          -1.01301000         
H                     1.77264000           3.58650000          -2.68946000         
H                     2.65078000           2.14572000          -2.00128000         
H                     2.04897000           2.09800000          -3.67683000         
H                     0.76577000          -1.53077000          -0.48280000         
H                    -0.81308000           0.34948000          -1.31887000         
H                    -0.36632000           0.62605000           0.38355000         
