12

C                     2.05928000           0.70660000           0.06788000         
C                    -0.29881000           0.64259000          -2.53842000         
C                     0.83885000           0.78715000          -3.21464000         
O                     2.25009000           2.02247000          -0.15597000         
O                     1.27303000           2.86153000          -0.03167000         
O                     2.98722000          -0.07310000          -0.06948000         
H                     1.11634000           3.20290000          -0.94883000         
H                     1.08361000           0.33263000           0.36293000         
H                    -0.45829000           1.18135000          -1.61038000         
H                    -1.07590000          -0.01628000          -2.91062000         
H                     0.99582000           0.24704000          -4.14206000         
H                     1.61796000           1.44513000          -2.84455000         
