12

C                     1.29192000          -1.01073000          -0.75184000         
C                     1.47711000           0.44605000          -0.90518000         
C                     2.19147000           0.98012000          -1.90147000         
O                    -0.27313000           3.64815000          -1.53374000         
O                    -0.74613000           2.96870000          -2.55789000         
O                     1.79032000          -1.80132000          -1.53754000         
H                    -0.64979000           2.01734000          -2.29722000         
H                     0.62297000           3.95517000          -1.82578000         
H                     0.70076000          -1.38533000           0.07708000         
H                     1.01231000           1.10522000          -0.17849000         
H                     2.67225000           0.35941000          -2.65093000         
H                     2.29914000           2.05724000          -1.97278000         
