43

C                    -5.70129000           0.85265000          -1.57161000         
C                    -4.39661000           0.41926000          -0.97264000         
C                    -4.28901000          -0.64697000          -0.16888000         
H                    -3.52331000           1.03417000          -1.17465000         
H                    -5.93673000           1.87346000          -1.20445000         
H                    -5.61525000           0.88272000          -2.67559000         
H                    -6.53386000           0.17695000          -1.28333000         
H                    -5.15556000          -1.24806000           0.08694000         
Ga                   -2.55278000          -0.99778000           0.71863000         
O                    -2.24280000           0.62170000           1.26640000         
O                    -1.32090000          -1.68480000          -0.33160000         
Si                    1.67010000          -2.15270000           1.74780000         
Si                    1.75300000           1.14130000           2.04550000         
Si                   -1.30760000           1.97500000           1.21400000         
Si                    2.49580000          -1.75460000          -1.33720000         
Si                    2.78670000           1.44790000          -1.00830000         
Si                   -0.31420000           1.90760000          -1.84810000         
Si                   -0.70030000          -1.33490000          -1.84390000         
O                     1.70450000          -0.52480000           2.11270000         
O                     0.21810000           1.75080000           1.87790000         
O                     0.11420000          -2.78420000           1.60160000         
O                     2.45480000          -2.29700000           0.25000000         
O                     2.62560000           1.53150000           0.65780000         
O                    -1.01850000           2.38400000          -0.40920000         
O                     3.02090000          -0.16890000          -1.40320000         
O                     1.35360000           1.96790000          -1.69230000         
O                    -0.78330000           0.32280000          -2.12230000         
O                     0.91150000          -1.78530000          -1.90430000         
O                    -2.10160000           3.24660000           1.99110000         
O                     2.43860000           1.81430000           3.42500000         
O                     4.03500000           2.40210000          -1.59700000         
O                    -0.82990000           2.83470000          -3.15440000         
O                     2.50050000          -2.96960000           2.96550000         
O                     3.52590000          -2.69160000          -2.27750000         
O                    -1.64610000          -2.13490000          -2.99660000         
H                     3.71240000          -3.62790000          -2.11500000         
H                     0.40270000          -3.70170000           1.73060000         
H                     3.46820000          -2.96230000           3.05970000         
H                     3.20620000           1.45080000           3.89060000         
H                    -1.63520000           4.00210000           2.38030000         
H                    -0.41880000           3.67070000          -3.42090000         
H                    -1.47030000          -2.12070000          -3.95010000         
H                     4.96130000           2.12560000          -1.65400000         
