12

C                    -6.96457000          -0.13148000           0.64802000         
C                    -6.24862000          -0.17994000          -0.67635000         
C                    -6.13447000          -1.30535000          -1.38574000         
H                    -5.82053000           0.73760000          -1.07233000         
H                    -6.97547000           0.91828000           1.01169000         
H                    -8.01265000          -0.46856000           0.50870000         
H                    -5.61091000          -1.29452000          -2.33613000         
H                    -6.54905000          -2.24163000          -1.02753000         
C                    -6.28424000          -0.99400000           1.71094000         
H                    -6.85069000          -0.92692000           2.66231000         
H                    -5.25512000          -0.62770000           1.90100000         
H                    -6.24703000          -2.05859000           1.39714000         
