5

C                     1.04111000           2.14190000          -3.36998000         
O                     2.25672000           2.09030000          -3.27652000         
O                     0.34071000           3.06497000          -2.67922000         
H                     0.78122000           3.70002000          -2.09690000         
H                     0.51896000           1.43722000          -4.00766000         
