8

C                     1.37853000           1.93211000          -2.34528000         
C                     1.38259000           0.92968000          -1.50153000         
C                     1.54298000          -0.18253000          -0.87964000         
O                     0.71174000           3.10743000          -2.21213000         
O                     0.10331000           3.49305000          -1.13992000         
O                     1.72721000          -1.24736000          -0.36386000         
H                     0.41086000           4.43200000          -1.02482000         
H                     1.95477000           1.77291000          -3.24064000         
