10

C                     1.63713000           1.02018000          -2.95966000         
C                     0.93255000           0.76282000          -1.69799000         
C                     1.31718000          -0.28389000          -1.00719000         
O                    -0.00109000           1.62510000          -1.21535000         
O                     0.25147000           2.89936000          -1.07860000         
O                     1.70874000          -1.21509000          -0.36341000         
H                    -0.02689000           3.35023000          -1.91469000         
H                     2.65303000           0.56662000          -2.91962000         
H                     1.72812000           2.10717000          -3.12815000         
H                     1.02776000           0.50864000          -3.72973000         
