6

C                     2.15341000           0.90875000           0.13233000         
O                     2.18026000           0.15455000          -0.98689000         
O                     2.04922000           2.24973000           0.04138000         
O                     2.22183000           0.38084000           1.23033000         
H                     1.99114000           2.68892000          -0.81838000         
H                     2.24321000          -0.81012000          -0.94667000         
