12

C                     1.26847000           1.72721000          -2.25532000         
C                     0.71479000           0.64397000          -1.33360000         
C                     1.46051000          -1.36663000          -0.51918000         
O                     0.32321000           2.75467000          -2.43509000         
O                     0.49533000           3.60900000          -1.44216000         
O                     1.64773000          -0.36678000          -1.20401000         
H                     0.94237000           4.39204000          -1.85577000         
H                     2.23685000           2.12021000          -1.86467000         
H                     1.48893000           1.28347000          -3.24933000         
H                     0.53489000          -1.51737000           0.03281000         
H                    -0.22679000           0.24010000          -1.77035000         
H                     0.49383000           1.08671000          -0.33620000         
