10

C                     1.36004000           0.45463000          -2.48623000         
C                     0.73105000           1.01725000          -1.43956000         
C                     1.59146000           0.73841000          -0.26824000         
O                     2.48318000          -0.11643000          -2.05097000         
O                     2.04625000           1.93649000           0.29778000         
O                     2.69813000          -0.00042000          -0.76774000         
H                     1.27480000           2.33194000           0.78217000         
H                     1.02125000           0.45837000          -3.51325000         
H                     1.04378000           0.12254000           0.48000000         
H                    -0.20616000           1.55682000          -1.46386000         
