9

C                     1.50185000           0.70170000          -2.91689000         
C                    -0.19440000           0.16262000          -0.49734000         
C                     0.90890000          -0.50961000          -0.85167000         
O                     0.56846000           1.48855000          -2.90300000         
O                     1.67064000          -0.24602000          -1.95413000         
H                     2.22245000           0.75690000          -3.72511000         
H                     1.22071000          -1.32691000          -0.20980000         
H                    -0.87074000           0.16783000          -1.34562000         
H                     0.04473000           1.22001000          -0.47841000         
