5

C                     1.68820000           2.44062000          -2.74418000         
O                     2.74283000           2.44105000          -2.12164000         
O                     0.64213000           3.20273000          -2.35436000         
H                     0.68433000           3.77128000          -1.57238000         
H                     2.87198000           2.98430000          -1.33138000         
