12

C                     1.50131000           0.40502000          -2.59062000         
C                     0.59986000           0.89310000          -1.48632000         
C                     0.82851000           2.01663000          -0.78188000         
O                     2.01548000          -0.85657000          -2.26411000         
O                     1.91100000           2.78105000          -1.03988000         
O                    -0.02450000           2.39490000           0.19843000         
H                     2.08407000           3.58810000          -0.53553000         
H                     2.35557000           1.09159000          -2.76628000         
H                     0.93297000           0.35478000          -3.54636000         
H                     1.27776000          -1.50864000          -2.39325000         
H                    -0.81558000           1.88590000           0.42780000         
H                    -0.27733000           0.29406000          -1.25790000         
