12

C                     2.08565000           1.31603000          -1.92351000         
C                    -0.42771000          -0.02383000          -0.90675000         
C                     1.89195000          -0.06056000          -1.31039000         
O                     0.88991000           2.04892000          -2.06793000         
O                     1.01888000           3.16173000          -1.36743000         
O                     0.84046000          -0.56825000          -0.90704000         
H                     1.14542000           3.87467000          -2.04490000         
H                     2.84722000           1.84810000          -1.30450000         
H                     2.53015000           1.18966000          -2.93260000         
H                    -1.13097000          -0.76014000          -0.46638000         
H                    -0.76445000           0.18652000          -1.94463000         
H                    -0.46018000           0.89321000          -0.28002000         
