10

C                     1.53638000           2.30376000          -2.33801000         
C                     0.95757000           0.64356000          -0.76310000         
C                     1.80093000          -0.35079000          -0.84762000         
O                     0.65744000           1.37435000          -1.85072000         
O                     1.22952000           3.53358000          -1.73366000         
O                     2.54427000          -1.28264000          -0.93476000         
H                     0.98901000           4.18643000          -2.43528000         
H                     2.58767000           2.05072000          -2.08047000         
H                     1.48393000           2.29642000          -3.45149000         
H                     0.38321000           0.80820000           0.14082000         
