12

C                     2.05238000           1.88667000          -2.49215000         
C                    -0.56679000           0.21244000          -1.17008000         
C                     0.55145000           0.14949000          -0.43934000         
O                     2.00767000           0.49481000          -2.24444000         
O                     2.58513000           2.61401000          -1.41193000         
O                     1.78823000           0.31183000          -0.97363000         
H                     1.81309000           2.90047000          -0.85582000         
H                     2.71251000           2.06226000          -3.36653000         
H                     1.04337000           2.26058000          -2.78038000         
H                     0.47111000          -0.03164000           0.62772000         
H                    -0.53773000           0.39543000          -2.23874000         
H                    -1.53122000           0.08373000          -0.69027000         
