12

C                     1.94088000           1.38474000          -2.33509000         
C                    -0.27865000          -0.04254000          -0.97457000         
C                     0.99891000          -0.05465000          -0.56751000         
O                     0.92421000           2.35554000          -2.30104000         
O                     1.21307000           3.16982000          -1.30461000         
O                     1.99912000           0.65920000          -1.15496000         
H                     1.29737000           4.06120000          -1.72781000         
H                     2.92618000           1.86646000          -2.52383000         
H                     1.75065000           0.69271000          -3.18255000         
H                     1.25237000          -0.66427000           0.29385000         
H                    -0.61940000           0.54443000          -1.81791000         
H                    -1.01542000          -0.63274000          -0.43968000         
