12

C                     1.37729000           1.37309000          -2.46692000         
C                     0.80004000           1.32452000          -1.04307000         
C                     1.28264000           0.11256000          -0.29405000         
O                     0.99060000           0.24981000          -3.21256000         
O                     1.19528000           2.47293000          -0.34005000         
O                     1.02323000          -1.01158000          -0.69376000         
H                     0.60035000           3.21105000          -0.63576000         
H                     2.48717000           1.40754000          -2.42351000         
H                     1.04566000           2.30121000          -2.98617000         
H                     1.85591000           0.22908000           0.62061000         
H                     0.04413000           0.39485000          -3.47499000         
H                    -0.31310000           1.27496000          -1.08558000         
