6

C                     0.65260000           1.50321000          -0.42879000         
C                     1.30833000           0.18672000          -0.42503000         
O                     1.31368000           2.52598000          -0.54082000         
O                     2.52043000           0.09363000          -0.53479000         
H                     0.88882000           3.39511000          -0.54676000         
H                     0.70987000          -0.71228000          -0.32547000         
