12

C                     1.87336000          -0.51972000          -2.27308000         
C                    -0.03776000           1.18391000          -0.85690000         
C                     1.21071000           1.57313000          -1.19305000         
O                     1.59488000           2.86757000          -1.03920000         
O                     0.77860000           3.80923000          -0.69325000         
O                     2.13142000           0.70797000          -1.69536000         
H                     0.51235000           4.23571000          -1.54907000         
H                     2.83598000          -1.00202000          -2.53877000         
H                     1.28707000          -0.36959000          -3.20501000         
H                     1.32791000          -1.19174000          -1.57973000         
H                    -0.75684000           1.88869000          -0.45347000         
H                    -0.36847000           0.15697000          -0.95910000         
