12

C                     0.92318000           0.67144000          -1.97444000         
C                    -0.34757000           0.77755000          -1.11558000         
C                     2.01567000          -0.08597000          -1.24232000         
O                     1.35253000           1.93047000          -2.46015000         
O                     1.48881000           2.74628000          -1.42819000         
O                     3.14629000           0.35213000          -1.06366000         
H                     0.81781000           3.45993000          -1.58032000         
H                     3.44129000           1.21819000          -1.37462000         
H                     0.65082000           0.06053000          -2.86136000         
H                    -0.70533000          -0.23729000          -0.83792000         
H                    -1.14987000           1.28598000          -1.69109000         
H                    -0.15789000           1.34554000          -0.18006000         
