9

C                     2.32543000           0.96879000          -2.31734000         
C                     1.12555000           0.51541000          -1.93284000         
C                     0.97346000          -0.78600000          -1.23976000         
O                     0.03307000           1.26793000          -2.18621000         
O                     1.93803000          -1.49456000          -0.99728000         
H                     2.41192000           1.92592000          -2.82270000         
H                     3.23223000           0.39981000          -2.13632000         
H                    -0.01480000          -1.11975000          -0.94061000         
H                    -0.85427000           0.98728000          -1.92136000         
