12

C                     2.01457000           2.36576000          -2.64574000         
C                    -0.03723000           0.71974000          -0.64512000         
C                     0.83602000          -0.50202000          -0.73214000         
O                     0.73041000           1.89694000          -2.32283000         
O                     0.65392000           1.89408000          -1.00106000         
O                     1.99824000          -0.42909000          -1.09726000         
H                     2.00290000           3.47260000          -2.72885000         
H                     2.78614000           2.04338000          -1.90904000         
H                     2.31264000           1.93235000          -3.62230000         
H                     0.42353000          -1.46850000          -0.46300000         
H                    -0.94825000           0.58896000          -1.27235000         
H                    -0.38359000           0.82580000           0.40380000         
