10

C                     1.90391000           1.24990000          -2.26860000         
C                     0.60715000           1.76137000          -1.69852000         
C                     1.92629000          -0.87701000          -1.14255000         
O                     1.94039000          -0.13046000          -2.27209000         
O                     0.37754000           2.96094000          -1.61925000         
O                     1.95224000          -2.09353000          -1.22079000         
H                     1.01400000           3.62738000          -1.91635000         
H                     2.76055000           1.64708000          -1.68152000         
H                     1.99480000           1.60920000          -3.31502000         
H                     1.89239000          -0.40577000          -0.16407000         
