6

C                     1.79359000          -0.30188000          -0.17235000         
O                     2.26107000           0.95708000          -0.28782000         
O                     1.92748000           1.86649000           0.56986000         
O                     2.09990000          -1.14123000          -1.00306000         
H                     1.38342000           2.51297000           0.05185000         
H                     1.14400000          -0.57564000           0.65314000         
