12

C                     1.47762000           1.51092000          -2.66890000         
C                     0.16016000           0.46784000          -0.10147000         
C                     0.80647000          -0.25859000          -1.02484000         
O                     2.68181000           2.18500000          -2.39977000         
O                     0.34878000           2.26720000          -2.29883000         
O                     1.49978000           0.24935000          -2.08463000         
H                     0.64798000           3.15792000          -1.97943000         
H                     2.77277000           2.22498000          -1.41211000         
H                     1.41539000           1.36509000          -3.76727000         
H                     0.79998000          -1.33734000          -0.90663000         
H                    -0.35203000          -0.04017000           0.70934000         
H                     0.13040000           1.54780000          -0.10127000         
