6

C                     2.45568000           1.10216000          -2.23837000         
C                     2.10673000          -0.09415000          -1.85137000         
C                     1.76427000          -1.26879000          -1.46927000         
O                     1.44409000          -2.36393000          -1.11087000         
H                     2.18193000           1.96547000          -1.64252000         
H                     3.02946000           1.23187000          -3.14927000         
