10

C                     1.46439000           1.61881000          -2.17149000         
C                     0.51790000           1.45263000          -1.22926000         
C                     0.29555000           0.13531000          -0.59346000         
O                    -0.26704000           2.48600000          -0.83009000         
O                    -0.14960000           3.68444000          -1.30980000         
O                     0.95929000          -0.84294000          -0.89975000         
H                    -0.80610000           3.72674000          -2.05127000         
H                     2.09129000           0.79507000          -2.49417000         
H                     1.62963000           2.58327000          -2.64025000         
H                    -0.47514000           0.03396000           0.16356000         
