10

C                     0.95938000           0.86746000          -1.80417000         
C                     0.51258000           1.47732000          -0.68958000         
C                     1.62684000          -1.25947000          -0.81144000         
O                     1.45178000          -0.40209000          -1.84743000         
O                     0.03751000           2.74223000          -0.73337000         
O                     2.06090000          -2.37814000          -1.02911000         
H                    -0.00183000           3.25751000          -1.55181000         
H                     0.92709000           1.41460000          -2.74079000         
H                     1.40049000          -0.98546000           0.21097000         
H                     0.51590000           0.98093000           0.27084000         
