12

C                     1.73291000           0.16097000          -2.54743000         
C                    -0.17707000           1.84821000          -1.01028000         
C                     1.16357000           1.95959000          -0.94391000         
O                     1.96802000          -1.12899000          -2.05876000         
O                     1.71029000           2.96047000          -0.21740000         
O                     2.01541000           1.09441000          -1.56487000         
H                     1.17934000           3.61972000           0.25357000         
H                     2.41251000           0.34124000          -3.40557000         
H                     0.70798000           0.24079000          -2.96569000         
H                     1.16479000          -1.37669000          -1.53072000         
H                    -0.81011000           2.56100000          -0.49056000         
H                    -0.67855000           1.05919000          -1.55428000         
