10

C                     1.34351000           2.05140000          -1.98652000         
C                    -0.53761000           0.95105000          -1.21476000         
O                     0.04819000           1.59699000          -2.32248000         
O                     1.27913000           3.33317000          -1.42331000         
H                     1.16993000           3.96760000          -2.17903000         
H                     1.88732000           1.36659000          -1.29554000         
H                     1.97017000           2.06272000          -2.90625000         
H                    -0.01726000          -0.00676000          -0.99445000         
H                    -1.58796000           0.70138000          -1.47003000         
H                    -0.56881000           1.61368000          -0.32099000         
