10

C                     0.95740000           1.53236000          -2.40434000         
C                     0.94894000           0.84279000          -1.29186000         
C                     0.96624000           0.20814000          -0.14912000         
O                     0.44719000           2.78528000          -2.45464000         
O                    -0.07815000           3.35560000          -1.41597000         
O                     1.41221000           0.82981000           0.96328000         
H                     0.49931000           4.14174000          -1.24097000         
H                     1.39608000           1.10617000          -3.29797000         
H                     0.61265000          -0.81590000          -0.08808000         
H                     1.72929000           1.74597000           0.94330000         
