9

C                     2.04348000           1.89231000          -2.48251000         
C                     1.82631000           0.68824000          -0.39704000         
C                    -0.18244000           0.63668000          -0.17672000         
O                     0.05466000           2.16383000          -2.84805000         
O                    -0.96237000           1.50192000          -1.63800000         
H                     2.55779000           2.86276000          -2.31546000         
H                     2.54975000           1.30611000          -3.28306000         
H                    -0.72352000           0.18576000           0.64373000         
H                     2.58275000           0.28653000           0.26298000         
