6

C                     0.42443000           2.35541000          -1.61810000         
C                    -0.29109000           1.64982000          -0.95084000         
O                     1.22283000           3.13954000          -2.36606000         
O                     1.43897000           4.20863000          -1.62634000         
H                     0.93872000           4.93715000          -2.07731000         
H                    -0.91705000           1.02739000          -0.36760000         
