12

C                     0.77634000           1.69428000          -2.34690000         
C                     1.45517000           1.24663000          -1.06860000         
C                     1.65372000          -0.04278000          -0.72225000         
O                    -0.34564000           2.47638000          -2.04379000         
O                     1.89455000           2.19800000          -0.21437000         
O                     1.27257000          -1.10914000          -1.46485000         
H                     1.78790000           3.14161000          -0.40063000         
H                     1.49343000           2.31932000          -2.91893000         
H                     0.47781000           0.87901000          -3.03395000         
H                     2.15377000          -0.24938000           0.21947000         
H                     0.81779000          -1.06585000          -2.31381000         
H                    -1.04814000           1.85066000          -1.72594000         
