12
0.0
C        0.841724       1.223431      -2.643417
C        0.267711       0.461568      -1.442649
C        1.300491       0.349105      -0.351158
O        1.177987       2.545103      -2.315341
O        2.249391       2.536703      -1.380977
O        1.129375       0.676589       0.789100
H        1.973407       3.174768      -0.707645
H        1.718997       0.698998      -3.042671
H        0.093970       1.341423      -3.430430
H        2.255884      -0.094379      -0.689753
H       -0.003106      -0.545122      -1.764317
H       -0.616730       0.971412      -1.056533
12
-4.263299342710525e-05
C        0.841716       1.223431      -2.643417
C        0.267698       0.461555      -1.442660
C        1.300491       0.349098      -0.351169
O        1.177977       2.545141      -2.315320
O        2.249406       2.536734      -1.380956
O        1.129401       0.676537       0.789145
H        1.973451       3.174820      -0.707653
H        1.718998       0.699005      -3.042670
H        0.093972       1.341423      -3.430427
H        2.255847      -0.094371      -0.689759
H       -0.003102      -0.545144      -1.764351
H       -0.616755       0.971370      -1.056553
