12
42.274882036432246
C        0.886681       1.063357      -2.668295
C        0.188746       0.483209      -1.415171
C        1.345387       0.586020      -0.467612
O        1.057077       2.411956      -2.306795
O        2.166776       2.504155      -1.159423
O        1.364809       0.597533       0.726933
H        1.718915       3.245378      -0.745570
H        1.747304       0.508593      -3.021494
H        0.382298       1.665046      -3.487560
H        2.276511       0.103982      -0.996747
H       -0.209969      -0.522046      -1.554139
H       -0.596696       1.206912      -1.205064
12
42.203144557255655
C        0.887312       1.063449      -2.667788
C        0.189194       0.483165      -1.414916
C        1.345885       0.585845      -0.467207
O        1.057757       2.412126      -2.305780
O        2.166659       2.504192      -1.158796
O        1.365291       0.597051       0.727382
H        1.718797       3.245553      -0.745039
H        1.748058       0.508754      -3.020855
H        0.383117       1.665033      -3.486839
H        2.276840       0.104128      -0.996326
H       -0.209461      -0.522085      -1.554160
H       -0.596186       1.206927      -1.204932
