12
111.4684288326007
C        0.978891       0.945963      -2.860189
C        0.371409       0.636912      -1.259911
C        1.403475       0.831620      -0.269309
O        0.676810       2.270361      -2.892112
O        2.042880       2.255667      -0.624595
O        1.667155       0.494050       0.836021
H        1.404465       2.987276      -0.737065
H        1.977590       0.319170      -2.983355
H        0.831108       2.040379      -3.911420
H        1.835893       0.220561      -1.844482
H       -0.043471      -0.374131      -1.131325
H       -0.383861       1.413880      -1.269474
12
111.39967320314463
C        0.978900       0.946080      -2.860036
C        0.371385       0.636899      -1.259778
C        1.403616       0.831620      -0.269135
O        0.676860       2.270492      -2.891916
O        2.043010       2.255440      -0.624264
O        1.667354       0.493957       0.836136
H        1.404686       2.987029      -0.736669
H        1.977616       0.319521      -2.983194
H        0.830955       2.040978      -3.911142
H        1.835913       0.220571      -1.844306
H       -0.043495      -0.374111      -1.131248
H       -0.383926       1.413861      -1.269323
