45

C                    -4.98192000          -2.41460000          -0.01926000         
C                    -4.30117000          -1.04477000           0.00047000         
H                    -4.33130000          -3.14563000          -0.54577000         
H                    -5.93548000          -2.32375000          -0.58360000         
H                    -4.14966000          -0.70308000          -1.04564000         
H                    -4.94721000          -0.30245000           0.51629000         
C                    -5.30511000          -2.92766000           1.38324000         
Ga                   -2.48088000          -1.03871000           0.85842000         
H                    -5.97221000          -2.21321000           1.91018000         
H                    -4.37855000          -3.06877000           1.97752000         
H                    -5.82204000          -3.90711000           1.30748000         
O                    -2.17710000           0.59910000           1.40070000         
O                    -1.34100000          -1.68980000          -0.29750000         
Si                    1.67960000          -2.15220000           1.73830000         
Si                    1.80180000           1.13870000           2.07830000         
Si                   -1.28000000           1.97950000           1.33480000         
Si                    2.44440000          -1.72700000          -1.36140000         
Si                    2.75770000           1.47320000          -0.98710000         
Si                   -0.36650000           1.94820000          -1.74920000         
Si                   -0.75400000          -1.29660000          -1.81410000         
O                     1.73100000          -0.52830000           2.10970000         
O                     0.27110000           1.76490000           1.94630000         
O                     0.11390000          -2.77420000           1.62470000         
O                     2.41410000          -2.29750000           0.21630000         
O                     2.66110000           1.54520000           0.68590000         
O                    -1.04590000           2.40720000          -0.29190000         
O                     2.96740000          -0.14170000          -1.40040000         
O                     1.30230000           1.99960000          -1.61350000         
O                    -0.83830000           0.36710000          -2.03870000         
O                     0.85420000          -1.75400000          -1.91590000         
O                    -2.05600000           3.22640000           2.16400000         
O                     2.51600000           1.77550000           3.46000000         
O                     3.98610000           2.42870000          -1.61360000         
O                    -0.90550000           2.88510000          -3.03780000         
O                     2.53460000          -2.97600000           2.93350000         
O                     3.46950000          -2.64160000          -2.32820000         
O                    -1.72680000          -2.06630000          -2.96400000         
H                     3.60840000          -3.59520000          -2.23280000         
H                    -0.14330000          -3.32620000           2.39770000         
H                     3.15750000          -3.73290000           3.12970000         
H                     3.30430000           1.41360000           3.89080000         
H                    -1.58120000           3.97470000           2.55680000         
H                    -0.56880000           3.76830000          -3.25010000         
H                    -1.58010000          -2.01870000          -3.92140000         
H                     4.91640000           2.16670000          -1.67270000         
