12
87.10602164262127
C        0.988620       1.355693      -1.218675
C       -0.225175       0.466067      -1.082706
C        1.896047      -0.138870      -1.229479
O        1.548011       1.825598      -2.364238
O        1.532592       3.298388      -2.363409
O        1.910609      -1.128682      -0.599539
H        1.913601       3.502515      -3.225805
H        1.528596       1.599986      -0.301088
H       -0.679662       1.414920      -1.728879
H        2.725282       0.236954      -1.863412
H       -0.571391      -0.374688      -1.647106
H       -0.913860       0.776732      -0.299637
12
87.02256730027693
C        0.988852       1.355624      -1.218553
C       -0.225296       0.466297      -1.082848
C        1.896190      -0.138721      -1.229597
O        1.548307       1.825546      -2.364075
O        1.532544       3.298250      -2.363451
O        1.910628      -1.128396      -0.599555
H        1.913508       3.502342      -3.225870
H        1.528808       1.599637      -0.300911
H       -0.679723       1.414842      -1.728593
H        2.725552       0.237077      -1.863415
H       -0.571635      -0.374190      -1.647572
H       -0.913882       0.776806      -0.299649
