12
87.36147722906935
C        0.920496       1.619121      -1.263697
C        0.145344       0.332984      -1.087929
C        1.699487      -0.439663      -1.047342
O        1.521664       2.043237      -2.445328
O        1.455479       3.508294      -2.487211
O        1.750420      -1.508893      -0.503615
H        1.855766       3.694819      -3.345100
H        1.423327       1.924188      -0.358970
H       -0.261570       1.929087      -1.645107
H        2.501341      -0.056693      -1.675580
H       -0.184923      -0.401551      -1.811923
H       -0.525807       0.490718      -0.258918
12
87.26823683883049
C        0.920633       1.619200      -1.263757
C        0.145576       0.332805      -1.088075
C        1.699285      -0.440031      -1.047122
O        1.521854       2.043257      -2.445429
O        1.455181       3.508222      -2.487586
O        1.750030      -1.509263      -0.503332
H        1.855459       3.694728      -3.345478
H        1.423228       1.924326      -0.359043
H       -0.261111       1.928815      -1.645132
H        2.501236      -0.057219      -1.675410
H       -0.184628      -0.401582      -1.812292
H       -0.525576       0.490382      -0.258988
