12
37.61663559457884
C        1.093874       1.234621      -1.246125
C       -0.275664       0.568338      -1.110776
C        1.957084      -0.110786      -1.282689
O        1.572603       1.832961      -2.381894
O        1.500626       3.268872      -2.243891
O        1.889426      -1.082387      -0.616984
H        1.841986       3.573285      -3.094776
H        1.590637       1.522686      -0.313473
H       -0.666807       1.217150      -1.930947
H        2.831967       0.157817      -1.916638
H       -0.533753      -0.435901      -1.373503
H       -0.933952       1.058864      -0.394281
12
37.544668559885395
C        1.094009       1.234414      -1.246034
C       -0.275845       0.568656      -1.110945
C        1.957268      -0.110765      -1.282706
O        1.572632       1.832849      -2.381821
O        1.500458       3.268754      -2.243900
O        1.889291      -1.082389      -0.616975
H        1.841655       3.573167      -3.094848
H        1.590687       1.522435      -0.313342
H       -0.667095       1.217522      -1.930812
H        2.832413       0.157735      -1.916317
H       -0.533943      -0.435493      -1.374068
H       -0.933898       1.058966      -0.394119
