12
10.65190046979842
C        1.205179       1.148963      -1.298398
C       -0.255684       0.661928      -1.192440
C        2.015916      -0.153050      -1.313534
O        1.614072       1.883661      -2.382460
O        1.405165       3.280934      -2.111537
O        1.856788      -1.095428      -0.618346
H        1.729736       3.696393      -2.921378
H        1.610341       1.558911      -0.362717
H       -0.596589       0.970784      -2.167044
H        2.875641      -0.034721      -2.005748
H       -0.464725      -0.374477      -1.011747
H       -0.866214       1.327638      -0.582401
12
10.59723428545476
C        1.205324       1.148692      -1.298311
C       -0.255794       0.662223      -1.192643
C        2.016176      -0.153106      -1.313460
O        1.614063       1.883415      -2.382439
O        1.405103       3.280701      -2.111564
O        1.856666      -1.095544      -0.618353
H        1.729571       3.696145      -2.921451
H        1.610272       1.558902      -0.362682
H       -0.596929       0.971173      -2.167138
H        2.875982      -0.035101      -2.005598
H       -0.464689      -0.374274      -1.012195
H       -0.866028       1.327695      -0.582107
